<?xml version="1.0" encoding="UTF-8"?>

<!-- generated on 2025-12-14 01:29:46.270346 by Eclipse SUMO randomTrips.py v1_25_0+0000-ac6c5a6752d
<configuration>
    <net-file value="sumo_data\mumbai.net.xml"/>
    <output-trip-file value="sumo_data\traffic.trips.xml"/>
    <fringe-factor value="10"/>
    <random value="True"/>
    <min-distance value="500.0"/>
    <max-distance value="5000.0"/>
    <period value="7.2"/>
</configuration>
-->

<!-- generated on 2025-12-14T01:29:45.883035+05:30 by Eclipse SUMO duarouter 1.25.0
<duarouterConfiguration xmlns:xsi="http://www.w3.org/2001/XMLSchema-instance" xsi:noNamespaceSchemaLocation="http://sumo.dlr.de/xsd/duarouterConfiguration.xsd">

    <input>
        <net-file value="sumo_data\mumbai.net.xml"/>
        <route-files value="sumo_data\traffic.trips.xml"/>
    </input>

    <output>
        <output-file value="routes.rou.xml"/>
        <alternatives-output value="NUL"/>
    </output>

    <time>
        <begin value="0.0"/>
        <end value="3600.0"/>
    </time>

    <report>
        <no-warnings value="true"/>
        <ignore-errors value="true"/>
        <no-step-log value="true"/>
    </report>

</duarouterConfiguration>
-->

<routes xmlns:xsi="http://www.w3.org/2001/XMLSchema-instance" xsi:noNamespaceSchemaLocation="http://sumo.dlr.de/xsd/routes_file.xsd">
    <vehicle id="0" depart="0.00">
        <route edges="1309530687#0 1309530687#1 570946690#0 1324970653#1 1334199805 22857711#0 22857711#2 22857711#3 83337274#3 83337274#4 -715173427#6 -715173427#5 -715173427#4 -715173427#3 -715173427#2 257802532#0 -1065780894 -169205165#5 -169205165#4 -169204804"/>
    </vehicle>
    <vehicle id="1" depart="7.20">
        <route edges="-1187828094#1 -1186180844 -151842129#0 22858368#9 22858368#10 1256576159#3 1256576159#4 1256576159#5 1054688552#1 1054688552#2 1293647947#2 1256576157#0 1256576157#1 1254255323#0 1254255323#1 1254255323#2 1254255323#3 1254255323#4 1254255323#5 1254255323#6 988472901#0 988472901#1 988472901#3 988472901#4 988472901#5 988472901#6 988472901#7 988472901#8 988472901#9 988472901#10 988680593 1142118519 988680592 785306904 49132049#0 49132049#1 49132049#2 49132049#3 1236029503#0 1236029503#1 202564785 988982707 73031452#0 73031452#1 73042259#0 73042259#1 -73042194#8 -73042194#7 -73042194#6 -73042194#5 -73042252#3 -73042252#2 -73042252#1 -73042252#0"/>
    </vehicle>
    <vehicle id="2" depart="14.40">
        <route edges="474211363#8 474211363#9 474211363#10 1294741991#0 1294741991#1 791350554#0 791350554#1 -474211363#10 -474211363#9 -474211363#8 -474211363#7 -474211363#6 -474211363#5 -474211363#4 -474211363#3 -474211363#2 -474211363#1 -474211363#0 -1144581086 -1144581088 22857142#0 22857142#2 22857142#3 22857142#4 22857142#5 22857142#6 22857142#7 22857142#8 1144579234 1345005613 83337274#0 83337274#1 83337274#3 83337274#4 1170572265#0 1170572265#1 1266523680#0 1266523680#1 1266523680#2 1170572266 1188632432 83337263#0 83337263#1 83337263#2 83337263#3 83337263#4 83337263#5 83337263#6 83337263#7 83337263#8 83337263#9 49180705#0 49180705#1 1235442612#0 1235442612#1 1283890828 1283890827 1099974715 22857733#0 22857733#1 22857733#2 -1123839480 -1444323687 -1122281531 -1333717589 1333717591 1254243223#0 1256576159#0 1256576159#1 1256576159#2 1256576159#3 1256576159#4 1256576159#5 -73048151#4 -73048151#2 -73048151#1 -73048151#0 -1170368743 -686123734#5 437924222"/>
    </vehicle>
    <vehicle id="3" depart="21.60">
        <route edges="-1094107498 -377007968 -1331527648 202565682#4 202565682#5 202565682#6 202565682#7 202565682#8 202565682#9 202565682#10 202565682#11 1252346000 22857832#0 22857832#1 22857832#2 22857832#3 22857832#4 1251117270#0 1251117270#1 1251117270#2 1254243238#0 1254243238#1 1333717589 1122281531 1444323687 1123839480 1111987532#1 1111987532#2 1111987532#3 1111987532#4 22857735#0 22857735#1 22857735#2 22857735#3 22857735#4 22857735#5 22857735#7 22857735#8 22857735#9 22857735#10 22857735#11 22857735#12 1356901750#0 1356901750#1 -213710816#7 213710819#0 213710819#1"/>
    </vehicle>
    <vehicle id="4" depart="28.80">
        <route edges="788373745#1 -1304627778#1 -1304627778#0 214785803#5 214785803#6 1146876191#3 1146876191#4 1146876191#5 1154414600 1424717657 83337276#0 83337276#1 83337276#2 83337276#3 83337276#4 83337276#5 1111987531#1 -1123839480 152365510 1146182852 1146182853 236244964#0 236244964#1 236244964#2"/>
    </vehicle>
    <vehicle id="5" depart="36.00">
        <route edges="-183279569 -183279589#0 1256034208#3 1256036475 1333717589 1122281531 1444323687 1123839480 1111987532#1 1111987532#2 1111987532#3 1111987532#4 1111987533 236244965#0 236244965#1 236244965#2 775937828#0 775937828#1 257427084#3 1265532933#0 1356867778 152371614#0 152371614#1 152371614#2 152371614#3 152371614#4 152371614#5 -214785861#4"/>
    </vehicle>
    <vehicle id="6" depart="43.20">
        <route edges="183279532#3 183279532#4 -151829686#6 -151829686#5 -151829686#4 -151829686#1 1148388872#2 1148388872#3 1148388872#4 1148388872#5 669760049 669760050 1293647947#2 1256576157#0 1256576157#1 1254255323#0 1254255323#1 1254255323#2 1254255323#3 1254255323#4 1254255323#5 1254255323#6 988472901#0 988472901#1 988472901#3 988472901#4 988472901#5 988472901#6 988472901#7 988472901#8 988472901#9 988472901#10 988680593 1142118519 988680592 1142118518 73037896#0 73037896#1 73037896#2 202565735 1238069924 1258637582#0 1258637582#1 1258637582#2 1258637582#3 1258637581#1 1258637581#2 1258637581#3 1258637581#4 1254239330#0 1254239330#1 1254239330#2"/>
    </vehicle>
    <vehicle id="7" depart="50.40">
        <route edges="-22857094#1 -22857094#0 152371614#0 449226990 1265532933#0 1265532933#1 -22857735#12 -22857735#11 -22857735#10 -22857735#9 -22857735#8 -22857735#7 -22857735#5 -22857735#4 -22857735#3 -22857735#2 -22857735#1 -22857735#0 1111987531#1 -1123839480 -1444323687 -1122281531 -1333717589 1333717591 1254243223#0 1254243223#1 1254243223#2 1254243223#3 1251117268 1251117269#0 1251117269#1 1256576156 1252345992 183286152 1150075892 183286143#0 183286143#1 183286143#2 183286143#3 183286143#5 183286143#6 183286143#7 1305173831 1356597389 741812807#0 741812807#1 741812807#2 741812807#3 1252345991 1142118518 73037896#0 73037896#1 73037896#2 202565735 1238069924 -988982708#0 1090898710#1 1090898710#2 1090898710#3 -169206565 749329736#3 749329736#4 -73032204#4 -73032204#3 -73032204#2 169206393#0"/>
    </vehicle>
    <vehicle id="8" depart="57.60">
        <route edges="1303484297#0 -377007970#0 214785861#2 214785861#3 214785861#4 152371614#6 152371614#7 152371614#8 1138318225 1434017618 1297295386 1138318226 1156232177 1264143644#0 1123366926 1309530687#0 1309530687#1 570946690#0 570946690#1 570946690#3 570946690#4 570946690#5 570946690#6 1411123740#1 1411123740#2 1411123737#0 384525124 1361615759 183286143#3 183286143#5 183286143#6 183286143#7 1305173831 1356597389 741812807#0 741812807#1 741812807#2 741812807#3 1252345991 1142118518 73037896#0 73037896#1 73037896#2 202565735 1238069924 -988982708#0 1090898710#1 -474538040#1 -474538040#0 73042194#1 73042194#2"/>
    </vehicle>
    <vehicle id="9" depart="64.80">
        <route edges="-1175534393#1 -1175534393#0 -151829686#1 1189087337#4 1256034208#0 1256034208#1 1256034208#2 1256034208#3 1256036475 1333717591 1254243223#0 1254243223#1 1254243223#2 1254243223#3 1251117268 1251117269#0 1251117269#1 1256576156 1252345992 1150075890#0 1150075890#1 1150075890#2 1150075890#3 1150075890#4 1150075890#5 1150075890#6 1150075890#7 202565728 1092139662#0 1092139662#1 1092139662#2 1092139662#3 1092139662#5 1092139662#6 1123427076#0 22857230"/>
    </vehicle>
    <vehicle id="10" depart="72.00">
        <route edges="-73074503#5 -73074503#4 -73074503#3 -73074503#2 -73074503#1 -73074503#0 -986413516#3 -986413516#2 786483560 988680597#7 988680597#8 988680597#9 988680597#10 791360126#0 791360126#1 791360126#2 791360126#3 791360126#4 791360126#5 988680594#0 988680594#1 988680594#2 988680594#3 988680594#4 988680594#5 988680594#6 988680594#7 988680594#8 988680593 1142118519 988680592 988680591 72880842#0 72880842#1 1252345998 1356597396 1356597397 1188585297#0 1188585297#1 1188585297#2 1188585297#4 1188585297#5 1188585297#6 1188585297#7 1188585297#8 1188585297#10 1188585297#11 202565701 73036341#0 73036341#1 73036341#2 49552654#1 49552654#2 788752292 788752293#0 788752293#1 1092139662#5 1092139662#6 1123427076#0"/>
    </vehicle>
    <vehicle id="11" depart="79.20">
        <route edges="-22857746#4 -22857746#3 22857746#3 22857746#4 384528523#2 384528523#3 384528523#4 384528523#5 384528523#6 384528523#7 1297295215 1146876193#0 1146876193#1 1149060227#0 1149060227#1 1373666397 1149056371#0 1149056371#1 1149056371#2 1149056371#3 1237287419 1144590364#0 1144590364#1 1144590364#2 1144590364#3 1054980473#0 1054980473#1 1054980473#2 1054980473#3 1054980473#4 1054980473#5 1054980473#6 1054980473#7 1054980473#8 1054980475#0 1054980475#1 1054980475#2 1054980475#3 1054980475#4 1054980475#5 1267442517 1420674912 102565700#0 -183279541 -775937838#0 -163819015 -172795859#1 1190955570"/>
    </vehicle>
    <vehicle id="12" depart="86.40">
        <route edges="-1187589939 -22857735#9 -22857735#8 -22857735#7 -22857735#5 -22857735#4 -22857735#3 -22857735#2 -22857735#1 -22857735#0 -83337276#5 -83337276#4 -83337276#3 -83337276#2 -83337276#1 -83337276#0 -1424717657 384528523#0 384528523#1 384528523#2 1121158701"/>
    </vehicle>
    <vehicle id="13" depart="93.60">
        <route edges="-1187528499#0 -250294223#3 -250294223#2 -250294223#1 988680594#4 988680594#5 988680594#6 988680594#7 988680594#8 988680593 1142118519 988680592 988680591 72880842#0 72880842#1 1356597390 1356597395 1356597394 151829697#0 151829697#2 151829697#3 151829697#4 151829697#5 151829697#6 151829697#7 151829697#8 1252345997 1252346000 22857832#0 22857832#1 22857832#2 22857832#3 22857832#4 1251117270#0 1251117270#1 1251117270#2 1254243238#0 1254243238#1 1122281530#0 1122281530#1 1434817927#0 1434817927#1 992705552"/>
    </vehicle>
    <vehicle id="14" depart="100.80">
        <route edges="-1343438458#1 1343438457#0 -377007976#0 214785797#0 214785797#1 1324970653#0 1324970653#1 1334199805 22857711#0 22857711#2 22857711#3 83337274#3 83337274#4 1170572265#0 1170572265#1 1170572262#0 1170572262#1 1170572262#2 1170572262#3 1170572262#4 1170572262#5 1170572262#6 1170572262#7 -125337460 -125337459 22857783 1237198320#0 1123427076#1 788838089 1123427093#0 1123427093#1 -424021745#0 -181613140#9 936564432"/>
    </vehicle>
    <vehicle id="15" depart="108.00">
        <route edges="570946690#1 -1131086246 570946691#7 570946691#8 570946691#10 570946691#11 570946691#12 1309530686 1123366925 1264143643 1175019350#0 1175019350#1 -22857103#7 -22857103#6 -22857103#5 -22857103#4 -22857103#3 -22857103#2 1144581087#7 1144581086 474211363#0 474211363#1 474211363#2 474211363#3 474211363#4 376350006 1189646371"/>
    </vehicle>
    <vehicle id="16" depart="115.20">
        <route edges="22858368#9 183252750#1 -183252734#0 1115993674#2 183252927#1 1251117270#2 1254243238#0 1254243238#1 1333717589 1122281531 1444323687 1123839480 1111987532#1 1111987532#2 1111987532#3 1111987532#4 -83337276#5 -83337276#4 -83337276#3 -83337276#2 -83337276#1 -83337276#0 -1424717657 83337275#0 83337275#1 83337275#2 1235442611#0 1235442611#1 1124983203#0 1124983203#1 83337263#7 214785862#0 214785862#1"/>
    </vehicle>
    <vehicle id="17" depart="122.40">
        <route edges="1343438458#0 1343438457#0 -377007976#0 -1092300815 -1092300814#3 -1092300814#2 -1092300814#1 -1092300814#0 -214785873#1 384528523#7 1297295215 1146876193#0 1146876193#1 1149060227#0 1149060227#1 1373666397 1149056371#0 1149056371#1 1149056371#2 1149056371#3 1237287419 1144590364#0 1144590364#1 1144590364#2 1144590364#3 1054980473#0 1054980473#1 1054980473#2 1054980473#3 1054980473#4 1054980473#5 1054980473#6 1054980473#7 1054980473#8 1054980475#0 1054980475#1 1054980475#2 1054980475#3 1054980475#4 1054980475#5 1267442517 1420674912 102565700#0 -183279541 -775937838#0 376349977"/>
    </vehicle>
    <vehicle id="18" depart="129.60">
        <route edges="1175534393#0 1175534393#1 -1175534393#1 -1175534393#0 -151829686#1 1189087337#4 1256034208#0 1256034208#1 1256034208#2 1256034208#3 1256036475 1333717589 1122281531 1444323687 1123839480 1111987532#1 1111987532#2 1111987532#3 1111987532#4 -83337276#5 -83337276#4 -83337276#3 -83337276#2 -83337276#1 -83337276#0 -1424717657 384528523#0 384528523#1 -22857746#4 -22857746#3 -22857746#2 -22857746#1 788508523 570946691#5 570946691#6 1131086246 473493077#0 473493077#1"/>
    </vehicle>
    <vehicle id="19" depart="136.80">
        <route edges="1430795707#2 -1430795707#2 -1430795707#1 -1430795707#0 -102570617#4 -102570617#2 -102570617#1 -102570617#0 -102565700#3 -102565700#2 -102565700#1 -102565700#0 1420674909#0 1420674909#1 1054980474#0 1054980474#1 1054980474#2 1054980474#3 1054980474#4 1054980474#5 -1054980473#8 -1054980473#7 -1054980473#6 -1054980473#5 -1054980473#4 -1054980473#3 -1054980473#2 -1054980473#1 -1054980473#0 1144590365 1144590366 49131965#0 49131965#1 49131965#2 49131965#3 49131965#4 1275756506#0 307958337 1138318224 1149060224 1373666398 1149056374#0 1149056374#1 1149056374#2 1394510698 1138318226 1156232177 1264143644#0 1251127692 257427085 1144579232 1144579234 1345005613 83337274#0 83337274#1 83337274#3 83337274#4 1170572265#0 1170572265#1 1170572262#0 1170572262#1 1170572262#2 1170572262#3 1170572262#4 1170572262#5 1170572262#6 1170572262#7 -125337460 -125337459 22857783 1237198320#0 1237198320#1 1237198320#2 1175594875"/>
    </vehicle>
    <vehicle id="20" depart="144.00">
        <route edges="-1332792364 -214785880#0 -1332790276 22856709#2 22856709#3 22856709#4 22856709#5 -22857094#3 -22857094#1 -22857094#0 152371614#0 449226990 1265532933#0 1265532933#1 1356901750#0 1356901750#1 -213710816#7 213710819#0 775937830"/>
    </vehicle>
    <vehicle id="21" depart="151.20">
        <route edges="-377007966#1 202565682#2 202565682#3 202565682#4 202565682#5 202565682#6 202565682#7 202565682#8 202565682#9 202565682#10 202565682#11 1252346000 22857832#0 22857832#1 22857832#2 22857832#3 22857832#4 1251117270#0 1251117270#1 1251117270#2 1254243238#0 1254243238#1 1333717589 1122281531 1444323687 1123839480 1111987532#1 1111987532#2 1111987532#3 1111987532#4 1111987533 236244965#0 -377007978 214785804#1 214785804#2 1430795200 -1131532305"/>
    </vehicle>
    <vehicle id="22" depart="158.40">
        <route edges="377007956#3 83337276#2 83337276#3 83337276#4 83337276#5 1111987531#1 -1123839480 -1444323687 -1122281531 -1333717589 1333717591 1254243223#0 1256576159#0 1256576159#1 1256576159#2 1256576159#3 1256576159#4 1256576159#5 1054688552#1 1054688552#2 1293647947#2 1256576157#0 1256576157#1 1124939122#0 1124939122#1 1124939123 1254255322#0 183279563#0 183279563#1 183279563#2 183279563#3 -300219909#1 691955841 1189780860 -1189780860 -691955841"/>
    </vehicle>
    <vehicle id="23" depart="165.60">
        <route edges="1146876194#1 1146876194#2 1146876194#3 257427084#0 257427084#1 257427084#2 -775937828#1 -775937828#0 -236244965#2 -236244965#1 -236244965#0 1111987531#0 1111987531#1 -1123839480 -1444323687 -1122281531 -1333717589 1333717591 1254243223#0 1256576159#0 1256576159#1 1256576159#2 1256576159#3 1256576159#4 1256576159#5 1054688552#1 1054688552#2 1293647947#2 1256576157#0 1256576157#1 1254255323#0 1254255323#1 1254255323#2 1254255323#3 1254255323#4 1254255323#5 1254255323#6 988472901#0 988472901#1 988472901#3 988472901#4 988472901#5 -1318039179#0 -1138595346#1 681314655#0 681314655#1"/>
    </vehicle>
    <vehicle id="24" depart="172.80">
        <route edges="749329736#2 169206565 151829684#2 151829684#3 151829684#4 151829684#5 151829684#7 73032192#0 988982708#0 1258637588#3 202565738 202565746#0 202565746#1 202565746#2 202565746#3 202565746#4 202565746#5 988680591 72880842#0 72880842#1 1356597390 1356597395 1356597394 151829697#0 151829697#2 151829697#3 151829697#4 151829697#5 151829697#6 151829697#7 151829697#8 1252345997 1252346000 22857832#0 22857832#1 22857832#2 22857832#3 22857832#4 1251117270#0 1251117270#1 1251117270#2 1254243238#0 1254243238#1 1122281530#0 1122281530#1 1434817927#0 1434817927#1 992705552"/>
    </vehicle>
    <vehicle id="25" depart="180.00">
        <route edges="-474537095 73040852#0 73040852#1 73040852#2 73040852#3 73040852#4 73040852#5 73040852#6 73042194#0 474538040#0 474538040#1 151829684#7 73032192#0 988982708#0 -73030702#7 -73030702#6 -73030702#5 -73030702#4 -73030702#3 -73030702#2 -73030702#1 73036341#1 73036341#2 49552654#1 49552654#2 788752292 788752293#0 788752293#1 1092139662#5 1092139662#6 1123427076#0 1123427076#1 1237198318 125337459 125337460 125337464#0 125337464#1 125337464#2 125337464#3 125337464#4 125337464#5 125337464#6 1266523675 570946696#0 570946696#1 570946696#2 1236044659#0 1149211549 1144579235 570936332 1177834394 1144581087#0 1144581087#1 1144581087#2 1144581087#3 1144581087#4 1144581087#5 1144581087#7 1144581086 474211363#0 474211363#1 474211363#2 474211363#3 -1189361147 1189361146"/>
    </vehicle>
    <vehicle id="26" depart="187.20">
        <route edges="-377007970#2 -377007970#1 -377007970#0 214785861#2 214785861#3 214785861#4 152371614#6 152371614#7 152371614#8 1138318225 1434017618 1297295386 1138318226 1156232177 1264143644#0 1123366926 1309530687#0 1309530687#1 570946690#0 570946690#1 570946690#3 570946690#4 570946690#5 570946690#6 1411123740#1 1411123740#2 1411123737#0 1411123737#1 183286155 1150075890#0 1150075890#1 1150075890#2 1150075890#3 1150075890#4 1150075890#5 1150075890#6 377007966#1"/>
    </vehicle>
    <vehicle id="27" depart="194.40">
        <route edges="1187825276 -74882743#1 437924226#1 1254243227#1 1254243227#2 669759843 669759844 1254243225#0 1254243225#1 1254243225#2 1123838592 1123838593 1189087337#0 1189087337#1 1189087337#2 1189087337#3 1189087337#4 1256034208#0 1256034208#1 1256034208#2 1256034208#3 1256036475 1333717589 1122281531 1444323687 1123839480 1111987532#1 1111987532#2 1111987532#3 1111987532#4 1111987533 236244965#0 -377007978 214785804#1 214785804#2 1430795200 1430795202#0 1430795202#1 1430795203#0 1430795203#1"/>
    </vehicle>
    <vehicle id="28" depart="201.60">
        <route edges="1347249485 -213711060#1 -213711060#0 1430795364 1347250547 -1347250546 1308998080#1 1308998080#2 152371614#0 152371614#1 152371614#2 152371614#3 152371614#4 152371614#5 152371614#6 152371614#7 152371614#8 1138318225 1434017618 1297295386 1138318226 1156232177 1264143644#0 1264143643 1175019350#0 1175019350#1 -22857103#7 -22857103#6 -22857103#5 -22857103#4 -22857103#3 -22857103#2 1144581087#7 1144579238#0 1144579238#1 1144579238#2"/>
    </vehicle>
    <vehicle id="29" depart="208.80">
        <route edges="-214785877#3 -214785877#2 -214785877#1 -214785877#0 1235442611#1 1124983203#0 1124983203#1 1124983203#2 1124983203#3 1124983203#4 1124983203#5 1124983203#6 1175242889#0 1175242889#1 1170572263 1170572264 1228865283#0 1228865283#1 1266523675 570946696#0 570946696#1 -377007953#8 -377007953#7 -377007953#6 -377007953#5 -377007953#4 -377007953#3 -377007953#2 -377007953#1 -377007953#0"/>
    </vehicle>
    <vehicle id="30" depart="216.00">
        <route edges="-152356998#4 -152356998#3 -152356998#2 -152356998#1 -152356998#0 152357004#0 152357004#1 1430184618#0 22856709#5 -22857094#3 -22857094#1 -22857094#0 152371614#0 449226990 1265532933#0 1265532933#1 -22857735#12 -22857735#11 -22857735#10 -22857735#9 -22857735#8 -22857735#7 -22857735#5 -22857735#4 -22857735#3 -22857735#2 -22857735#1 -22857735#0 1111987531#1 -1123839480 -1444323687 -1122281531 -1333717589 1122281530#0 1122281530#1 1122281530#2 1256034211#0 1256034211#1 1256034211#2 1256034211#3 183279532#0 183279539#0 183279539#1"/>
    </vehicle>
    <vehicle id="31" depart="223.20">
        <route edges="-183279532#3 -183279532#2 -183279532#1 -183279532#0 1148388872#0 1148388872#1 1148388872#2 1148388872#3 1148388872#4 1148388872#5 669760049 669760050 1293647947#2 1256576157#0 1256576157#1 1254255323#0 1254255323#1 1254255323#2 1254255323#3 1254255323#4 1254255323#5 1254255323#6 988472901#0 988472901#1 988472901#3 988472901#4 988472901#5 988472901#6 -250294223#9 -250294223#8 -250294223#7 -250294223#6 -250294223#5 250294224#0 1187527415 1304594350"/>
    </vehicle>
    <vehicle id="32" depart="230.40">
        <route edges="1237287419 307958337 1138318224 1149060224 1373666398 1149056374#0 1149056374#1 1149056374#2 1394510698 1138318226 1156232177 1264143644#0 1123366926 1309530687#0 1309530687#1 570946690#0 570946690#1 570946690#3 570946690#4 570946690#5 570946690#6 1411123740#1 1411123740#2 1411123737#0 384525124 1361615759 183286143#3 183286143#5 183286143#6 183286143#7 1305173831 1356597389 741812807#0 741812807#1 741812807#2 741812807#3 1252345991 988680601 988982706 22858707#0 22858707#1 22858707#2 73074507#1"/>
    </vehicle>
    <vehicle id="33" depart="237.60">
        <route edges="1175246061#2 -169205034#0 -169204559#3 -169204559#2 -169204559#1 125337464#3 125337464#4 125337464#5 125337464#6 1266523680#0 1266523680#1 1266523680#2 1170572266 1188632432 83337263#0 83337263#1 83337263#2 83337263#3 83337263#4 83337263#5 83337263#6 83337263#7 83337263#8 83337263#9 49180705#0 49180705#1 1235442612#0 1235442612#1 1283890828 1283890827 1099974714 1154414598 1424717657 83337276#0 83337276#1 83337276#2 83337276#3 83337276#4 83337276#5 22857735#0 22857735#1 22857735#2 22857735#3 22857735#4 22857735#5 22857735#7 22857735#8 22857735#9 22857735#10 22857735#11 22857735#12 1356901750#0 1356901750#1 -213710816#7 -213710816#6 1190826163"/>
    </vehicle>
    <vehicle id="34" depart="244.80">
        <route edges="992141888 1332789097#7 1332789097#8 1332789097#9 22856709#0 22856709#1 22856709#2 22856709#3 22856709#4 22856709#5 -22857094#3 -22857094#1 -22857094#0 152371614#0 449226990 1265532933#0 1265532933#1 -22857735#12 -22857735#11 -22857735#10 -22857735#9 -22857735#8 -22857735#7 -22857735#5 -22857735#4 -22857735#3 -22857735#2 -22857735#1 -22857735#0 1111987531#1 -1123839480 -1444323687 -1122281531 -1333717589 1333717591 1254243223#0 1256576159#0 1256576159#1 1256576159#2 1256576159#3 1256576159#4 1256576159#5 -73048151#4 -73048151#2 -73048151#1 -73048151#0 -1170368743 -686123734#5 -686123734#4 214785814#0 214785814#1 992705555#0 1328766179"/>
    </vehicle>
    <vehicle id="35" depart="252.00">
        <route edges="-1177227597 250294223#6 250294223#7 250294223#8 250294223#9 22858707#5 22858707#6 22858707#7 22858707#8 22858707#9 1285841058#0 1285841058#1 1285841058#2 1254243226#0 1254243226#1 1254243226#2 1254243226#3 1254243226#4 1254243226#5 1254243226#6 1254243226#7 1254243226#8 1254243226#9 1254243225#0 73048137#1 -73048139#1 -1216159959 1303443809 73048128#4 -1170368743 -686123734#5 437924222"/>
    </vehicle>
    <vehicle id="36" depart="259.20">
        <route edges="-476003808#0 1254243226#8 1254243226#9 1254243225#0 1254243225#1 1254243225#2 1123838592 1123838593 1189087337#0 1189087337#1 1189087337#2 1189087337#3 1189087337#4 183279532#0 183279539#0 183279539#1 183279554"/>
    </vehicle>
    <vehicle id="37" depart="266.40">
        <route edges="-230782674 -169206393#1 -169206393#0 73032204#2 73032204#3 73032204#4 1227534724#0 1227534724#1 73040852#0 73040852#1 73040852#2 73040852#3 73040852#4 73040852#5 73040852#6 73042194#0 474538040#0 474538040#1 151829684#7 73032192#0 988982708#0 1258637588#3 202565738 202565746#0 202565746#1 202565746#2 202565746#3 202565746#4 202565746#5 988680591 72880842#0 72880842#1 1356597390 1356597395 1356597394 151829697#0 151829697#2 1309532003 1123366921 384525127 1411123738#1 1411123738#2 1411123739#0 1136975868 570946691#2 1092524279 22857746#0 22857746#1 22857746#2 22857746#3 22857746#4 384528523#2 384528523#3 384528523#4 384528523#5 384528523#6 384528523#7 1297295215 1146876193#0 1146876193#1 1149060227#0 1149060227#1 1373666397 1149056371#0 1149056371#1 1149056371#2 1149056371#3 1237287419 1144590364#0 1144590364#1 1144590364#2 1144590364#3 1054980473#0 1054980473#1 1054980473#2 1054980473#3 1054980473#4 1054980473#5 1054980473#6 1054980473#7 1430800495#0 1430800495#1 1430800495#2 1430800495#3 214785827#0 214785827#1 992141914"/>
    </vehicle>
    <vehicle id="38" depart="273.60">
        <route edges="927441547#1 257802534#1 715173427#0 715173427#1 715173427#2 715173427#3 715173427#4 715173427#5 715173427#6 1236044659#0 1149211549 1268392234#0 1268392234#1 1144579237#0 1144579237#1 1146876192 1394510699 1146876194#0 1146876194#1 1146876194#2 1146876194#3 257427084#0 257427084#1 -1065466143 152371614#5 152371614#6 152371614#7 1175566831"/>
    </vehicle>
    <vehicle id="39" depart="280.80">
        <route edges="1123798145 -214785880#4 -214785880#3 -214785880#2 -214785880#1 -214785880#0 -1332790276 22856709#2 22856709#3 22856709#4 22856709#5 -22857094#3 -22857094#1 -22857094#0 152371614#0 449226990 1265532933#0 1265532933#1 -22857735#12 -22857735#11 -22857735#10 -22857735#9 -22857735#8 -22857735#7 -22857735#5 -22857735#4 -22857735#3 -22857735#2 -22857735#1 -22857735#0 1111987531#1 -1123839480 -1444323687 -1122281531 -1333717589 1333717591 1254243223#0 1256576159#0 1256576159#1 1256576159#2 1256576159#3 1256576159#4 1256576159#5 1054688552#1 1054688552#2 1293647947#2 1256576157#0 1256576157#1 1254255323#0 1254255323#1 1254255323#2 1254255323#3 1254255323#4 1254255323#5 1254255323#6 988680597#0 988680597#1 988680597#3 988680597#4 988680597#5 988680597#6 -786483560 986413516#2 986413516#3 73074503#0 73074503#1 73074503#2 73074503#3 73074503#4 73074503#5 73074503#6 73074503#7 73074503#8 -73074503#8 -73074503#7 -73074503#6"/>
    </vehicle>
    <vehicle id="40" depart="288.00">
        <route edges="-1303402612#1 -1303402612#0 -1175561461#1 -1175561461#0 -1175561463 -72878023#0 -72878019#0 -1120331191 741812807#3 1252345991 988680601 988982706 22858707#0 22858707#1 22858707#2 22858707#3 22858707#4 -250294223#9"/>
    </vehicle>
    <vehicle id="41" depart="295.20">
        <route edges="-180105210#2 -22858061#2 22858707#9 1285841058#0 1285841058#1 1285841058#2 1254243226#0 1254243226#1 1254243226#2 1254243226#3 1254243226#4 1254243226#5 1254243226#6 1254243226#7 1254243226#8 1254243226#9 1254243225#0 1254243225#1 1254243225#2 1123838592 1123838593 1189087337#0 1189087337#1 1189087337#2 1189087337#3 1189087337#4 1256034208#0 1256034208#1 1256034208#2 1256034208#3 1256036475 1333717589 1122281531 1444323687 1123839480 1111987532#1 1111987532#2 1111987532#3 1111987532#4 1111987533 236244965#0 236244965#1 236244965#2 775937828#0 775937828#1 257427084#3 1265532933#0 1356867778 152371614#0 152371614#1 152371614#2 152371614#3 152371614#4 152371614#5 -214785861#4 -214785861#3 -214785861#2 377007970#0 1303484297#1 1303484297#2"/>
    </vehicle>
    <vehicle id="42" depart="302.40">
        <route edges="119866180#2 -119866180#2 -119866180#1 1190311283#1 1334199804 -1324970653#1 -1324970653#0 570946691#10 570946691#11 215621939 1144579237#1 1146876192 1297295215 1146876193#0 1146876193#1 1149060227#0 1149060227#1 1373666397 1149056371#0 1149056371#1 1149056371#2 1149056371#3 1237287419 1144590364#0 1144590364#1 1144590364#2 1144590364#3 1054980473#0 1054980473#1 1054980473#2 1054980473#3 1054980473#4 1054980473#5 1054980473#6 1054980473#7 1054980473#8 1054980475#0 1054980475#1 1054980475#2 1054980475#3 1054980475#4 1054980475#5 1267442517 1420674912 102565700#0 -183279541 -775937838#0 -163819015 -172795859#1 -172795859#0"/>
    </vehicle>
    <vehicle id="43" depart="309.60">
        <route edges="-213710819#1 -213710819#0 -213710816#6 -213710816#5 -213710816#4 -152365511#4 -152365511#3 -152365511#2 -152365511#1 -152365511#0 -22857735#2 -22857735#1 -22857735#0 -83337276#5 -83337276#4 -83337276#3 -83337276#2 -83337276#1 -83337276#0 -1424717657 384528523#0 384528523#1 384528523#2 384528523#3 384528523#4 384528523#5 384528523#6 384528523#7 1297295215 1297295386 1138318226 1156232177 1264143644#0 1123366926 1309530687#0 1309530687#1 1309530688 183286146"/>
    </vehicle>
    <vehicle id="44" depart="316.80">
        <route edges="-1134736935 -1166098740#1 -1166098740#0 -1123839480 -1444323687 -1122281531 -1333717589 1333717591 1254243223#0 1254243223#1 1254243223#2 1254243223#3 1251117268 1251117269#0 1251117269#1 1256576156 1252345992 183286152 1150075892 183286143#0 183286143#1 183286143#2 183286143#3 183286143#5 183286143#6 183286143#7 1305173831 1356597389 741812807#0 741812807#1 741812807#2 741812807#3 1252345991 1142118518 73037896#0 437935592#0 437935592#1"/>
    </vehicle>
    <vehicle id="45" depart="324.00">
        <route edges="-376349990#1 -376349990#0 183286150#3 183286150#4 183286150#5 1251127694#0 1251127694#1 1251127694#2 1251127693 1123366926 1309530687#0 1309530687#1 570946690#0 570946690#1 570946690#3 570946690#4 570946690#5 570946690#6 1411123740#1 1411123740#2 1411123737#0 1411123737#1 183286155 183286152 202565682#11 1252346000 22857832#0 22857832#1 22857832#2 22857832#3 22857832#4 1251117270#0 1251117270#1 1251117270#2 1254243238#0 -151842124"/>
    </vehicle>
    <vehicle id="46" depart="331.20">
        <route edges="-236244964#2 -236244964#1 -236244964#0 213710994 1149793574 -1146182852 -152365510 -1444323687 -1122281531 -1333717589 1333717591 1254243223#0 1256576159#0 1256576159#1 1256576159#2 1256576159#3 1256576159#4 1256576159#5 1054688552#1 1054688552#2 1293647947#2 73048128#0 992705556"/>
    </vehicle>
    <vehicle id="47" depart="338.40">
        <route edges="73030700 73030702#1 73030702#2 73030702#3 73030702#4 73030702#5 73030702#6 73030702#7 1258637582#0 1258637582#1 73030447#5 73030447#6 73032858#3"/>
    </vehicle>
    <vehicle id="48" depart="345.60">