<?xml version="1.0" encoding="UTF-8"?>
<routes xmlns:xsi="http://www.w3.org/2001/XMLSchema-instance" xsi:noNamespaceSchemaLocation="http://sumo.dlr.de/xsd/routes_file.xsd">
    <vType id="car" vClass="passenger" color="1,0,0" guiShape="passenger" speedFactor="normc(1.0,0.08,0.85,1.15)" accel="2.6" decel="4.5" sigma="0.3" impatience="0.5" minGap="2.5" />
    <vType id="taxi" vClass="taxi" color="1,1,0" guiShape="taxi" speedFactor="normc(1.0,0.08,0.85,1.15)" accel="2.6" decel="4.5" sigma="0.3" impatience="0.5" minGap="2.5" />
    <vType id="bus" vClass="bus" color="0,0,1" guiShape="bus" speedFactor="normc(1.0,0.08,0.85,1.15)" accel="2.6" decel="4.5" sigma="0.3" impatience="0.5" minGap="2.5" />
    <vType id="truck" vClass="delivery" color="0.5,0.5,0.5" guiShape="truck" speedFactor="normc(1.0,0.08,0.85,1.15)" accel="2.6" decel="4.5" sigma="0.3" impatience="0.5" minGap="2.5" />
    <route id="route_0" edges="22857513#1 73048134#1 73048134#2 -22857513#0 1251117270#0 1251117270#1 1251117270#2 1256576159#0 1256576159#1 1256576159#2 1256576159#3 1256576159#4 1256576159#5 1054688552#1 1054688552#2 1293647947#2 1256576157#0 1256576157#1 1254255323#0 1254255323#1 1254255323#2 1254255323#3 1254255323#4 1254255323#5 1254255323#6 988680597#0 988680597#1 988680597#3 988680597#4 988680597#5 988680597#6 -786483560 986413516#2 986413516#3 73074503#0 73074503#1 73074503#2 73074503#3 73074503#4 73074503#5 73074503#6 73074503#7 73074503#8 73074504" />
    <flow id="flow_0" type="car" route="route_0" begin="0" end="36000" vehsPerHour="29" departSpeed="random" departLane="best" departPos="random" />
    <flow id="flow_1" type="taxi" route="route_0" begin="5" end="36000" vehsPerHour="39" departSpeed="random" departLane="best" departPos="random" />
    <route id="route_1" edges="22857513#1 73048134#1 437923428#0 437923428#1 73048132#1 72887511#2 -73048714#5 -73048714#4 -73048714#3 -73048714#2 -73048714#1 -73048714#0 151829697#5 151829697#6 1328743801 183286143#1 183286143#2 -72879621#4 -72879621#3 -72879621#2 -72879621#1 -72879621#0 -1170351941#3 -1170351941#2 1330474696 1188585297#7 1188585297#8 1188585297#10 1188585297#11 202565701 73036341#0 73030702#1 1124062594#0 1124062594#1 73032689#0 1124062596#6 73032691 -73032691" />
    <route id="route_2" edges="-183252910#3 183252736#0 183252736#2 183252736#3 1170368738#3 1170368738#4 1170368738#5 1254243226#8 1254243226#9 1254243225#0 1254243225#1 1254243225#2 22858368#1 151829688#0 1072544080 208706078#1" />
    <flow id="flow_2" type="car" route="route_2" begin="10" end="36000" vehsPerHour="42" departSpeed="random" departLane="best" departPos="random" />
    <route id="route_3" edges="-1186764506 -72879621#2 -72879621#1 -72879621#0 -1170351941#3 -1170351941#2 1330474696 1188585297#7 1188585297#8 1188585297#10 1188585297#11 202565701 73036341#0 73036341#1 73036341#2 49552654#1 49552654#2 788752292 788752293#0 788752293#1 1142049707#0 -255387132 255387132" />
    <flow id="flow_3" type="taxi" route="route_3" begin="15" end="36000" vehsPerHour="49" departSpeed="random" departLane="best" departPos="random" />
    <route id="route_4" edges="-73048145 183286142 1188585297#1 1188585297#2 1188585297#4 1188585297#5 1188585297#6 1188585297#7 1188585297#8 1188585297#10 1188585297#11 202565701 73036341#0 73036341#1 73036341#2 49552654#1 49552654#2 788752292 788752293#0 788752293#1 1063794428#0 1063794428#1 1063794428#2 1063794428#3 1154189821 1154189820#0 183248165#0 183248165#1" />
    <flow id="flow_4" type="car" route="route_4" begin="20" end="36000" vehsPerHour="29" departSpeed="random" departLane="best" departPos="random" />
    <route id="route_5" edges="-183248165#1 -183248165#0 1154189820#1 72878025#3 72878025#4 202565706 202565742#0 202565742#1 202565742#3 202565742#4 1170351941#1 1170351941#2 1170351941#3 72879621#0 72879621#1 72879621#2 72879621#3 72879621#4 72879621#5 151829697#3 151829697#4 151829697#5 151829697#6 151829697#7 151829697#8 1252345997 49131844 103191580#0 103191580#1 1411123738#0 1411123738#1 1411123738#2 1411123739#0 1136975868 570946691#2 570946691#3 1092524281#1 570946690#6 1411123740#1 1411123740#2 1411123737#0" />
    <route id="route_6" edges="255387132 1142049707#1 1142049707#2 202565720 202565682#0 202565682#1 202565682#2 202565682#3 202565682#4 202565682#5 202565682#6 202565682#7 202565682#8 202565682#9 202565682#10 202565682#11 49131844 103191580#0 103191580#1 1411123738#0 1411123738#1 1411123738#2 1411123739#0 1136975868 570946691#2 570946691#3 570946691#4 570946691#5 570946691#6 570946691#7 570946691#8 570946691#10 570946691#11 570946691#12 1309530686 1123366925 1264143643 1175019350#0 1175019350#1 1175019350#2 1175019350#3 1175019350#4 1175019350#5 1175019350#6" />
    <flow id="flow_5" type="car" route="route_6" begin="25" end="36000" vehsPerHour="33" departSpeed="random" departLane="best" departPos="random" />
    <route id="route_7" edges="255387132 1142049707#1 1142049707#2 202565720 202565682#0 202565682#1 202565682#2 202565682#3 202565682#4 -73048153#3 -73048153#2 -73048153#1 -73048153#0 -1170351941#3 -1170351941#2 -1170351941#1 202565742#5 202565742#6 202565742#8 202565742#9 202565742#10 202565742#11 1356597393 1356597392 741812807#0 741812807#1 741812807#2 741812807#3 1252345991 988680601 988982706 22858707#0 22858707#1 22858707#2 22858707#3 22858707#4 22858707#5 22858707#6 22858707#7 22858707#8 22858707#9 -183252910#3" />
    <flow id="flow_6" type="car" route="route_7" begin="30" end="36000" vehsPerHour="35" departSpeed="random" departLane="best" departPos="random" />
    <route id="route_8" edges="988472901#10 988680593 1142118519 437935588#1 72880842#0 72880842#1 1252345998 1356597396 1356597397 1188585297#0 1188585297#1 1188585297#2 1188585297#4 1188585297#5 1188585297#6 1188585297#7 1188585297#8 1188585297#10 1188585297#11 202565701 73036341#0 73036341#1 73036341#2 49552654#1 49552654#2 788752292 788752293#0 183688259" />
    <route id="route_9" edges="988472901#10 988680593 1142118519 437935588#1 72880842#0 72880842#1 1356597390 1356597395 1356597394 151829697#0 151829697#2 151829697#3 151829697#4 151829697#5 151829697#6 151829697#7 151829697#8 1252345997 49131844 103191580#0 103191580#1 1411123738#0 1411123738#1 1411123738#2 1411123739#0 1136975868 570946691#2 1092524279 22857746#0 22857746#1 22857746#2 22857746#3 22857746#4 384528523#2 384528523#3 -1121158701" />
    <flow id="flow_7" type="car" route="route_9" begin="35" end="36000" vehsPerHour="32" departSpeed="random" departLane="best" departPos="random" />
    <route id="route_10" edges="181613174 -181613174 1092139662#2 1092139662#3 1063794428#0 1063794428#1 1063794428#2 1063794428#3 1154189821 1154189820#0 1154189820#1 72878025#3 72878025#4 202565706 202565742#0 202565742#1 202565742#3 202565742#4 202565742#5 202565742#6 202565742#8 202565742#9 202565742#10 202565742#11 1356597393 1356597392 741812807#0 741812807#1 741812807#2 741812807#3 1252345991 988680601 988982706 22858707#0 22858707#1 22858707#2 22858707#3 22858707#4 22858707#5 22858707#6 22858707#7 22858707#8 22858707#9 -183252910#3" />
    <flow id="flow_8" type="car" route="route_10" begin="40" end="36000" vehsPerHour="35" departSpeed="random" departLane="best" departPos="random" />
    <route id="route_11" edges="1254255323#1 1170368737#0 1170368737#1 1170368737#2 1170368737#3 1170368737#4 1170368737#5 -183252922#1 -183252922#0 1123840436#2 1123840436#3 180105210#0 180105210#1 -22858061#2 988472901#4 988472901#5 988472901#6 988472901#7 988472901#8 988472901#9 988472901#10" />
    <flow id="flow_9" type="car" route="route_11" begin="45" end="36000" vehsPerHour="37" departSpeed="random" departLane="best" departPos="random" />
    <flow id="flow_10" type="taxi" route="route_11" begin="50" end="36000" vehsPerHour="35" departSpeed="random" departLane="best" departPos="random" />
    <route id="route_12" edges="1254255323#1 1170368737#0 1170368737#1 1170368737#2 1170368737#3 1170368737#4 1170368737#5 -183252922#1 -183252922#0 1123840436#2 1123840436#3 180105210#0 180105210#1 -22858061#2 988472901#4 988472901#5 988472901#6 988472901#7 988472901#8 988472901#9 988472901#10 988680593 1142118519 988680592 1142118518 73037896#0 73037896#1 73037896#2 202565735 1238069924 -73030702#7 -73030702#6 -73030702#5 -73030702#4 -73030702#3 -73030704#0 -1285481593 -72879991 72879991" />
    <route id="route_13" edges="-131876116#3 169205165#0 169205165#1 169205165#2 169205165#3 169205165#4 169205165#5 169205089 -181613172 377007953#1 377007953#2 377007953#3 377007953#4 377007953#5 377007953#6 377007953#7 377007953#8 570946696#2 1236044659#0 1149211549 1144579235 1144579231#0 1144579231#1 1222455845" />
    <flow id="flow_11" type="car" route="route_13" begin="55" end="36000" vehsPerHour="30" departSpeed="random" departLane="best" departPos="random" />
    <flow id="flow_12" type="taxi" route="route_13" begin="60" end="36000" vehsPerHour="56" departSpeed="random" departLane="best" departPos="random" />
    <route id="route_14" edges="-125337459 125337459 125337460 125337464#0 125337464#1 125337464#2 125337464#3 125337464#4 125337464#5 125337464#6 1266523675 -181613134 -119866180#3 -119866180#2 -119866180#1 1190311283#1 1334199804 -1324970653#1 -1324970653#0 570946691#10 570946691#11 215621939 1144579237#1 1146876192 1394510699 1146876194#0 1146876194#1 1146876194#2 1146876194#3 257427084#0 257427084#1 257427084#2 -775937828#1" />
    <flow id="flow_13" type="car" route="route_14" begin="65" end="36000" vehsPerHour="60" departSpeed="random" departLane="best" departPos="random" />
    <flow id="flow_14" type="taxi" route="route_14" begin="70" end="36000" vehsPerHour="58" departSpeed="random" departLane="best" departPos="random" />
    <route id="route_15" edges="-73030702#1 72878025#4 202565706 202565742#0 202565742#1 202565742#3 202565742#4 1170351941#1 1170351941#2 1170351941#3 73048153#0 73048153#1 73048153#2 73048153#3 424021748 -181613136#0 181613140#0 181613140#1 181613180" />
    <flow id="flow_15" type="car" route="route_15" begin="75" end="36000" vehsPerHour="48" departSpeed="random" departLane="best" departPos="random" />
    <route id="route_16" edges="-73032691 1124062596#7 1124062596#8 72878025#0 72878025#1 72878025#3 72878025#4 202565706 202565742#0 202565742#1 202565742#3 202565742#4 1170351941#1 1170351941#2 1170351941#3 72879621#0 72879621#1 72879621#2 72879621#3 72879621#4 72879621#5 151829697#3 151829697#4 151829697#5 151829697#6 151829697#7 151829697#8 1252345997 1252346000 22857832#0 22857832#1 22857832#2 22857832#3 22857832#4 1251117270#0 1251117270#1 1251117270#2 1254243238#0 1254243238#1 1333717589 1122281531 1444323687 1123839480 1166098740#0 1166098740#1 1166098740#2 -686132117#1 -686132117#0 152365513#1 -152365513#1" />
    <flow id="flow_16" type="car" route="route_16" begin="80" end="36000" vehsPerHour="60" departSpeed="random" departLane="best" departPos="random" />
    <route id="route_17" edges="152365512 -486561070#0 -152365510 -1444323687 -1122281531 -1333717589 1333717591 1254243223#0 1254243223#1 1254243223#2 1254243223#3 1251117268 1251117269#0 1251117269#1 1256576156 1252345992 183286152 1150075892 183286143#0 183286143#1 183286143#2 -72879621#4 -72879621#3 -72879621#2 -72879621#1 -72879621#0 -1170351941#3 -1170351941#2 1330474696 1188585297#7 1188585297#8 1188585297#10 1188585297#11 202565701 73036341#0 73030702#1 1124062594#0 1124062594#1 73032689#0 73032689#1 -73032689#1" />
    <flow id="flow_17" type="car" route="route_17" begin="85" end="36000" vehsPerHour="27" departSpeed="random" departLane="best" departPos="random" />
    <route id="route_18" edges="213710850 -213711060#0 1430795364 1347250547 -1347250546 1308998080#1 1308998080#2 152371614#0 449226990 214785860#0 214785860#1 -236244965#2 -236244965#1 -236244965#0 1111987531#0 1111987531#1 -1123839480 -1444323687 -1122281531 -1333717589 1333717591 1254243223#0 1254243223#1 1254243223#2 1254243223#3 1251117268 1251117269#0 1251117269#1 1256576156 1252345992 183286152 1150075892 183286143#0 183286143#1 183286143#2 -72879621#4 -72879621#3 -72879621#2 -72879621#1 -72879621#0 -1170351941#3 -1170351941#2 1330474696 1188585297#7 1188585297#8 1188585297#10 1188585297#11 202565701 73036341#0 73030702#1" />
    <flow id="flow_18" type="car" route="route_18" begin="90" end="36000" vehsPerHour="55" departSpeed="random" departLane="best" departPos="random" />
    <route id="route_19" edges="988680594#5 988680594#6 988680594#7 988680594#8 988680593 1142118519 437935588#1 72880842#0 72880842#1 1252345998 1356597396 1356597397 1188585297#0 1188585297#1 1188585297#2 1188585297#4 1188585297#5 1170351941#1 1170351941#2 1170351941#3 73048153#0 73048153#1 73048153#2 73048153#3 1150075890#4 1150075890#5 1150075890#6 1150075890#7 202565728 1092139662#0 1092139662#1 181613174 -181613174" />
    <flow id="flow_19" type="car" route="route_19" begin="95" end="36000" vehsPerHour="47" departSpeed="random" departLane="best" departPos="random" />
    <route id="route_20" edges="183252910#3 -183252910#3 183252736#0 183252736#2 183252736#3 1170368738#3 1170368738#4 1170368738#5 1254243226#8 1254243226#9 1254243225#0 1254243225#1 1254243225#2 22858368#1 22858368#2 22858368#4 22858368#5 22858368#6 22858368#7 22858368#9 183252750#1 -183252734#0 -1115993674#1 151842124 1254243238#1 1333717589 1122281531 1444323687 152365510 486561070#0 -152365512" />
    <flow id="flow_20" type="car" route="route_20" begin="100" end="36000" vehsPerHour="46" departSpeed="random" departLane="best" departPos="random" />
    <route id="route_21" edges="384528525 1237295079 1138318225 1434017618 1297295386 1138318226 1156232177 1264143644#0 1123366926 1309530687#0 1309530687#1 570946690#0 570946690#1 570946690#3 119869838#0 -940618572 940668369#0 940668369#1 377007957#0 377007957#1 1170572263 1170572264 1228865283#0 1266523680#1 1266523680#2 1170572266 1188632432 83337263#0 476051977#0 -788344770" />
    <flow id="flow_21" type="car" route="route_21" begin="105" end="36000" vehsPerHour="29" departSpeed="random" departLane="best" departPos="random" />
    <route id="route_22" edges="377008000 -181613140#2 -181613140#1 -181613140#0 181613136#0 -424021748 -73048153#3 -73048153#2 -73048153#1 -73048153#0 -1170351941#3 -1170351941#2 -1170351941#1 202565742#5 202565742#6 202565742#8 202565742#9 202565742#10 202565742#11 1356597393 1356597392 741812807#0 741812807#1 741812807#2 741812807#3 1252345991 988680601 988982706 1142095291#0 1142095291#1 1142095291#2 1142095291#3 1142095291#4 1142095291#5 1142095291#6 1142095291#7 181218227 -181218227" />
    <route id="route_23" edges="769934251 -181613190 125337464#0 125337464#1 125337464#2 125337464#3 125337464#4 125337464#5 125337464#6 1266523675 -181613134 -119866180#3 -119866180#2 -119866180#1 1190311283#1 1334199804 -1324970653#1 -1324970653#0 570946691#10 570946691#11 215621939 1144579237#1 1146876192 1297295215 1146876193#0 1146876193#1 1149060227#0 1149060227#1 1373666397 1149056371#0 1149056371#1 1149056371#2 1149056371#3 1237287419 1144590364#0 1144590364#1 1144590364#2 1144590364#3 1237746959#0 1237746959#1" />
    <flow id="flow_22" type="taxi" route="route_23" begin="110" end="36000" vehsPerHour="25" departSpeed="random" departLane="best" departPos="random" />
    <route id="route_24" edges="1254243226#8 1254243226#9 1254255323#0 1254255323#1 1170368737#0 1170368737#1 1170368737#2 1170368737#3 1170368737#4 1170368737#5 -183252922#1 -183252922#0 1123840436#2 1123840436#3 180105210#0 180105210#1 -22858061#2 988472901#4 988472901#5 988472901#6 988472901#7 988472901#8 988472901#9 988472901#10 22858707#0 22858707#1 22858707#2" />
    <flow id="flow_23" type="car" route="route_24" begin="115" end="36000" vehsPerHour="60" departSpeed="random" departLane="best" departPos="random" />
    <route id="route_25" edges="-73030704#0 73030704#0 73030704#1 202565699 202565715 1334174226#0 1334174226#1 1334174313#0 202565742#3 202565742#4 1170351941#1 1170351941#2 1170351941#3 72879621#0 72879621#1 72879621#2 72879621#3 72879621#4 72879621#5 151829697#3 151829697#4 151829697#5 151829697#6 151829697#7 151829697#8 1252345997 1252346000 22857832#0 22857832#1 22857832#2 22857832#3 22857832#4 1251117270#0 1251117270#1 1251117270#2 1254243238#0 1254243238#1 1333717589 1122281531 1444323687 152365510 1146182852 1146182853 213710994 1149793573#0 213710816#1 213710816#3 -152365511#4 -152365511#3" />
    <flow id="flow_24" type="car" route="route_25" begin="120" end="36000" vehsPerHour="59" departSpeed="random" departLane="best" departPos="random" />
    <flow id="flow_25" type="taxi" route="route_25" begin="125" end="36000" vehsPerHour="45" departSpeed="random" departLane="best" departPos="random" />
    <flow id="flow_26" type="bus" route="route_25" begin="130" end="36000" vehsPerHour="55" departSpeed="random" departLane="best" departPos="random" />
    <route id="route_26" edges="183286150#0 183286150#1 183286150#2 183286150#3 183286150#4 183286150#5 1251127694#0 1251127694#1 1251127694#2 1251127693 1123366926 1309530687#0 1309530687#1 570946690#0 570946690#1 570946690#3 570946690#4 570946690#5 570946690#6 1411123740#1 1411123740#2 1411123737#0 1411123737#1 183286155 1150075890#0 377007995#0 377007995#1 377007995#2 377007995#3 788838088#1 181613140#0 181613140#1 181613140#2 -377008000" />
    <flow id="flow_27" type="car" route="route_26" begin="135" end="36000" vehsPerHour="29" departSpeed="random" departLane="best" departPos="random" />
    <route id="route_27" edges="-788344770 788344770 -476051977#0 83337263#1 83337263#2 83337263#3 83337263#4 570946691#1 570946691#2 570946691#3 1092524281#1 570946690#6 1411123740#1 1411123740#2 1411123737#0 1411123737#1 183286155 183286152 1150075892 183286143#0 183286143#1 183286143#2 183286143#3 183286143#5 183286143#6 183286143#7 1305173831 1356597389 741812807#0 741812807#1 741812807#2 741812807#3 1252345991 988680601 988982706 22858707#0 22858707#1 22858707#2 73074507#1 73074507#2" />
    <flow id="flow_28" type="car" route="route_27" begin="140" end="36000" vehsPerHour="30" departSpeed="random" departLane="best" departPos="random" />
    <route id="route_28" edges="-102565700#1 -102565700#0 22856709#0 22856709#1 22856709#2 102564638#1 102564638#2 102564638#3 102564638#4 102564638#5 214785861#0 214785861#1 214785861#2 214785861#3 214785861#4 152371614#6 215621942 1237295079 1138318225 1434017618 1297295386 1138318226 1156232177 1264143644#0 1251127692 257427085 1144579232 1144579231#0" />
    <flow id="flow_29" type="car" route="route_28" begin="145" end="36000" vehsPerHour="45" departSpeed="random" departLane="best" departPos="random" />
    <route id="route_29" edges="-102565700#1 -102565700#0 22856709#0 22856709#1 22856709#2 22856709#3 22856709#4 22856709#5 -22857094#3 -22857094#1 -22857094#0 152371614#0 449226990 214785860#0 214785860#1 -236244965#2 -236244965#1 -236244965#0 1111987531#0 1111987531#1 -1123839480 -1444323687 -1122281531 -1333717589 1122281530#0 1122281530#1 1434817927#0 1434817927#1 151829691 -151829688#6 -151829688#5 -151829688#4 -151829688#3 -151829688#2 -151829688#1 -151829688#0 1054688552#2 1293647947#2 1256576157#0 1256576157#1 1254255323#0 1254255323#1" />
    <flow id="flow_30" type="car" route="route_29" begin="150" end="36000" vehsPerHour="29" departSpeed="random" departLane="best" departPos="random" />
    <flow id="flow_31" type="taxi" route="route_29" begin="155" end="36000" vehsPerHour="31" departSpeed="random" departLane="best" departPos="random" />
    <route id="route_30" edges="377007966#1 -377007966#1 202565682#2 202565682#3 202565682#4 -73048153#3 -73048153#2 -73048153#1 -73048153#0 72879621#0 72879621#1 72879621#2 72879621#3 72879621#4 72879621#5 73048155#0 73048155#1 73048155#2 -1175874709 -73048145" />
    <flow id="flow_32" type="car" route="route_30" begin="160" end="36000" vehsPerHour="35" departSpeed="random" departLane="best" departPos="random" />
    <route id="route_31" edges="741812807#1 741812807#2 741812807#3 255387163#0 255387163#1 73037896#0 73037896#1 73037896#2 202565735 1238069924 1258637582#0 1258637582#1 1258637582#2 1258637582#3 202565713#0 235882320#0 235882320#1 235882320#2" />
    <route id="route_32" edges="1144590364#2 1144590364#3 1054980473#0 1054980473#1 1054980473#2 1054980473#3 1054980473#4 1054980473#5 1054980473#6 1054980473#7 1054980473#8 1054980475#0 1054980475#1 1054980475#2 1054980475#3 1054980475#4 1054980475#5 1267442517 1420674912 22856709#0 22856709#1 22856709#2 22856709#3 22856709#4 22856709#5 -22857094#3 -22857094#1 -22857094#0 152371614#0 449226990 1265532933#0 1265532933#1 -22857735#12 -22857735#11 -22857735#10 -22857735#9 -22857735#8 -22857735#7 -22857735#5 -22857735#4 -22857735#3 152365511#0 152365511#1 152365511#2 152365511#3" />
    <flow id="flow_33" type="car" route="route_32" begin="165" end="36000" vehsPerHour="31" departSpeed="random" departLane="best" departPos="random" />
    <route id="route_33" edges="691681556 -691681556 -376349993 1054980474#0 1054980474#1 1054980474#2 1054980474#3 1054980474#4 1054980474#5 -1054980473#8 -1054980473#7 -1054980473#6 -1054980473#5 -1054980473#4 -1054980473#3 -1054980473#2 -1054980473#1 -1054980473#0 1144590365 1144590366 49131965#0 49131965#1 49131965#2 49131965#3 49131965#4 1275756506#0 1144590364#0 1144590364#1 1144590364#2" />
    <flow id="flow_34" type="car" route="route_33" begin="170" end="36000" vehsPerHour="41" departSpeed="random" departLane="best" departPos="random" />
    <route id="route_34" edges="788752293#1 1142049707#0 1142049707#1 1142049707#2 202565720 202565682#0 202565682#1 202565682#2 202565682#3 202565682#4 202565682#5 202565682#6 202565682#7 202565682#8 202565682#9 202565682#10 202565682#11 1252346000 22857832#0 22857832#1 22857832#2 22857832#3 22857832#4 22857513#0 22857513#1" />
    <flow id="flow_35" type="taxi" route="route_34" begin="175" end="36000" vehsPerHour="53" departSpeed="random" departLane="best" departPos="random" />
    <route id="route_35" edges="73074507#2 73074507#3 22858707#2 22858707#3 22858707#4 22858707#5 22858707#6 22858707#7 22858707#8 22858707#9 -183252910#3" />
    <flow id="flow_36" type="car" route="route_35" begin="180" end="36000" vehsPerHour="34" departSpeed="random" departLane="best" departPos="random" />
    <route id="route_36" edges="-181613174 1092139662#2 1092139662#3 1063794428#0 1063794428#1 1063794428#2 1063794428#3 1154189821 1154189820#0 1154189820#1 72878025#3 72878025#4 202565706 202565742#0 202565742#1 202565742#3 202565742#4 202565742#5 202565742#6 202565742#8 202565742#9 202565742#10 202565742#11 1356597393 1356597392 741812807#0 741812807#1 741812807#2 741812807#3 1252345991 988680601 988982706 22858707#0 22858707#1 -73074507#3 -73074507#2" />
    <flow id="flow_37" type="car" route="route_36" begin="185" end="36000" vehsPerHour="27" departSpeed="random" departLane="best" departPos="random" />
    <route id="route_37" edges="1175019350#1 1175019350#2 1175019350#3 1175019350#4 1175019350#5 183286150#2 183286150#3 183286150#4" />
    <route id="route_38" edges="1153419896 384528525 1237295079 1138318225 1434017618 1146876193#0 1146876193#1 1149060227#0 1149060227#1 1373666397 1149056371#0 1149056371#1 1149056371#2 1149056371#3 1237287419 1144590364#0 1144590364#1 1144590364#2 -1430800494 1430800494" />
    <route id="route_39" edges="-73074511 -1209008378 1209008379#8 1209008379#9 988680596#0 988680596#1 988680596#2 988680596#3 988680596#4 988680596#5 988680596#6 988680596#8 988680596#9 988680596#10 22858176#0 22858176#1 22858176#2 22858176#3" />
    <route id="route_40" edges="-73074511 -1209008378 1209008379#8 1209008379#9 988680596#0 988680596#1 988680596#2 988680596#3 988680596#4 988680596#5 988680596#6 988680596#8 988680596#9 988680596#10 1254243226#0 1254243226#1 1254243226#2 1254243226#3 1254243226#4 1254243226#5 1254243226#6 1254243226#7 1254243226#8 1254243226#9 1254243225#0 73048137#1 -73048139#1 -1216159959 1303443809 73048128#4 73048151#0 73048151#1 1138271312#0 1332816874 -1332816873#0 -183252744 -183252726" />
    <flow id="flow_38" type="car" route="route_40" begin="190" end="36000" vehsPerHour="27" departSpeed="random" departLane="best" departPos="random" />
    <route id="route_41" edges="-152356994#1 -152356994#0 -1430795707#3 -1430795707#2 -1430795707#1 -1430795707#0 -102570617#4 152356987#0 152356987#1 -102565700#1 -102565700#0 22856709#0 22856709#1 22856709#2 22856709#3 22856709#4 22856709#5 -22857094#3 -22857094#1 -22857094#0 152371614#0 449226990 214785860#0 214785860#1 -214785804#3 -214785804#2 1105130746 1105130745 -473488946#1 -473488946#0 -214785851#1 -214785851#0 -214785808#0 -83337269#1 -22857746#4 -22857746#3 -22857746#2 -22857746#1 -22857746#0 1092524281#0 1092524281#1 570946690#6 1411123740#1 1411123740#2 1411123737#0" />
    <route id="route_42" edges="131876116#3 181613187#1 -257802532#0 715173427#2 715173427#3 715173427#4 715173427#5 715173427#6 1236044659#0 1149211549 1144579235 1144579231#0" />
    <flow id="flow_39" type="car" route="route_42" begin="195" end="36000" vehsPerHour="29" departSpeed="random" departLane="best" departPos="random" />
    <route id="route_43" edges="131876116#3 181613187#1 -1065780894 169205089 -181613172 377007953#1 377007953#2 377007953#3 377007953#4 377007953#5 377007953#6 377007953#7 377007953#8 1170572265#1 1266523675 -181613134 -119746298 -940618571 -940618574 -119866178#1 -119866178#0 570946690#6 1411123740#1 1411123740#2 1411123737#0 1411123737#1 183286155 183286152 202565682#11 1252346000 22857832#0 22857832#1 22857832#2 22857832#3 22857832#4 22857513#0 22857513#1" />
    <flow id="flow_40" type="car" route="route_43" begin="200" end="36000" vehsPerHour="59" departSpeed="random" departLane="best" departPos="random" />
    <flow id="flow_41" type="bus" route="route_43" begin="205" end="36000" vehsPerHour="41" departSpeed="random" departLane="best" departPos="random" />
    <route id="route_44" edges="180849292 927441547#0 927441547#1 257802534#1 715173427#0 715173427#1 715173427#2 715173427#3 715173427#4 715173427#5 715173427#6 1236044659#0 1149211549 1268392234#0 1268392234#1 1144579237#0 1144579237#1 1146876192 1297295215 1146876193#0 1146876193#1 1149060227#0 1149060227#1 1373666397 1149056371#0 1149056371#1 1149056371#2 1149056371#3 1237287419 1144590364#0 1144590364#1 1144590364#2 -1430800494" />
    <flow id="flow_42" type="car" route="route_44" begin="210" end="36000" vehsPerHour="52" departSpeed="random" departLane="best" departPos="random" />
    <route id="route_45" edges="180849292 927441547#0 927441547#1 257802534#1 715173427#0 715173427#1 715173427#2 715173427#3 715173427#4 715173427#5 715173427#6 1236044659#0 1149211549 1144579235 570936332 1177834394 1144581087#0 1144581087#1 1144581087#2 1144581087#3 1144581087#4 1144581087#5 1144581087#7 -1144581088 1094695996#0 1094695996#1 570936331#0 570936331#1" />
    <flow id="flow_43" type="car" route="route_45" begin="215" end="36000" vehsPerHour="37" departSpeed="random" departLane="best" departPos="random" />
    <flow id="flow_44" type="truck" route="route_45" begin="220" end="36000" vehsPerHour="59" departSpeed="random" departLane="best" departPos="random" />
    <route id="route_46" edges="-183279565 183279565 -437923425#0 -183279589#3 -183279589#2 -183279589#1 -183279589#0 1256034208#3 1256036475 1333717589 1122281531 1444323687 1123839480 1111987532#1 1111987532#2 1111987532#3 1111987532#4 1111987533 236244965#0 236244965#1 236244965#2 -214785860#1 -214785860#0 1265532933#0 1356867778 22857094#0 22857094#1 213710942#0 -213711060#3 -213711060#2 -213711060#1 -213711060#0 1430795364 213710850" />
    <flow id="flow_45" type="car" route="route_46" begin="225" end="36000" vehsPerHour="46" departSpeed="random" departLane="best" departPos="random" />
    <route id="route_47" edges="1176141028 -1176141028 1149056371#1 1149060224 1373666398 1149056374#0 1149056374#1 1149056374#2 1394510698 723986551 1434017619 1146876191#0 1146876191#1 -214785851#6 -214785851#5 -214785851#4 -214785851#3 -214785851#2 473488946#0 473488946#1 -1105130745 -1105130746 -214785804#1 377007978 -236244965#0 1111987531#0 1111987531#1 -1123839480 152365510 486561070#0 486561070#1" />
    <flow id="flow_46" type="car" route="route_47" begin="230" end="36000" vehsPerHour="51" departSpeed="random" departLane="best" departPos="random" />
    <route id="route_48" edges="1176141028 -1176141028 1149056371#1 1149060224 1373666398 1149056374#0 1149056374#1 1149056374#2 1394510698 723986551 1146876192 1394510699 1146876194#0 1146876194#1 1146876194#2 1146876194#3 257427084#0 257427084#1 257427084#2 257427084#3 1265532933#0 1265532933#1 1356901750#0 1356901750#1 -213710816#7 -213710816#6 -213710816#5 -213710816#4 -213710816#3 -213710816#1 236244963#2 -486561070#1" />
    <flow id="flow_47" type="car" route="route_48" begin="235" end="36000" vehsPerHour="49" departSpeed="random" departLane="best" departPos="random" />
    <route id="route_49" edges="183248165#1 -183248165#1 -183248165#0 1154189820#1 49552654#1 49552654#2 788752292 788752293#0 788752293#1 1092139662#5 1092139662#6 1123427076#0 1123427076#1 1237198318 125337459 125337460 125337464#0 125337464#1 125337464#2 125337464#3 125337464#4 125337464#5 125337464#6 1266523675 570946696#0 570946696#1 570946696#2 1236044659#0 1149211549 1144579235 570936332 1177834394 1144581087#0 1144581087#1 1144581087#2 1144581087#3 1144581087#4 1144581087#5 1144581087#7 -1144581088 1094695996#0" />
    <flow id="flow_48" type="car" route="route_49" begin="240" end="36000" vehsPerHour="52" departSpeed="random" departLane="best" departPos="random" />