<?xml version="1.0" encoding="UTF-8"?>

<!-- generated on 2025-12-14 01:29:45.326140 by Eclipse SUMO randomTrips.py v1_25_0+0000-ac6c5a6752d
<configuration>
    <net-file value="sumo_data\mumbai.net.xml"/>
    <output-trip-file value="sumo_data\traffic.trips.xml"/>
    <fringe-factor value="10"/>
    <random value="True"/>
    <min-distance value="500.0"/>
    <max-distance value="5000.0"/>
    <period value="7.2"/>
</configuration>
-->

<routes xmlns:xsi="http://www.w3.org/2001/XMLSchema-instance" xsi:noNamespaceSchemaLocation="http://sumo.dlr.de/xsd/routes_file.xsd">
    <trip id="0" depart="0.00" from="1309530687#0" to="-169204804"/>
    <trip id="1" depart="7.20" from="-1187828094#1" to="-73042252#0"/>
    <trip id="2" depart="14.40" from="474211363#8" to="437924222"/>
    <trip id="3" depart="21.60" from="-1094107498" to="213710819#1"/>
    <trip id="4" depart="28.80" from="788373745#1" to="236244964#2"/>
    <trip id="5" depart="36.00" from="-183279569" to="-214785861#4"/>
    <trip id="6" depart="43.20" from="183279532#3" to="1254239330#2"/>
    <trip id="7" depart="50.40" from="-22857094#1" to="169206393#0"/>
    <trip id="8" depart="57.60" from="1303484297#0" to="73042194#2"/>
    <trip id="9" depart="64.80" from="-1175534393#1" to="22857230"/>
    <trip id="10" depart="72.00" from="-73074503#5" to="1123427076#0"/>
    <trip id="11" depart="79.20" from="-22857746#4" to="1190955570"/>
    <trip id="12" depart="86.40" from="-1187589939" to="1121158701"/>
    <trip id="13" depart="93.60" from="-1187528499#0" to="992705552"/>
    <trip id="14" depart="100.80" from="-1343438458#1" to="936564432"/>
    <trip id="15" depart="108.00" from="570946690#1" to="1189646371"/>
    <trip id="16" depart="115.20" from="22858368#9" to="214785862#1"/>
    <trip id="17" depart="122.40" from="1343438458#0" to="376349977"/>
    <trip id="18" depart="129.60" from="1175534393#0" to="473493077#1"/>
    <trip id="19" depart="136.80" from="1430795707#2" to="1175594875"/>
    <trip id="20" depart="144.00" from="-1332792364" to="775937830"/>
    <trip id="21" depart="151.20" from="-377007966#1" to="-1131532305"/>
    <trip id="22" depart="158.40" from="377007956#3" to="-691955841"/>
    <trip id="23" depart="165.60" from="1146876194#1" to="681314655#1"/>
    <trip id="24" depart="172.80" from="749329736#2" to="992705552"/>
    <trip id="25" depart="180.00" from="-474537095" to="1189361146"/>
    <trip id="26" depart="187.20" from="-377007970#2" to="377007966#1"/>
    <trip id="27" depart="194.40" from="1187825276" to="1430795203#1"/>
    <trip id="28" depart="201.60" from="1347249485" to="1144579238#2"/>
    <trip id="29" depart="208.80" from="-214785877#3" to="-377007953#0"/>
    <trip id="30" depart="216.00" from="-152356998#4" to="183279539#1"/>
    <trip id="31" depart="223.20" from="-183279532#3" to="1304594350"/>
    <trip id="32" depart="230.40" from="1237287419" to="73074507#1"/>
    <trip id="33" depart="237.60" from="1175246061#2" to="1190826163"/>
    <trip id="34" depart="244.80" from="992141888" to="1328766179"/>
    <trip id="35" depart="252.00" from="-1177227597" to="437924222"/>
    <trip id="36" depart="259.20" from="-476003808#0" to="183279554"/>
    <trip id="37" depart="266.40" from="-230782674" to="992141914"/>
    <trip id="38" depart="273.60" from="927441547#1" to="1175566831"/>
    <trip id="39" depart="280.80" from="1123798145" to="-73074503#6"/>
    <trip id="40" depart="288.00" from="-1303402612#1" to="-250294223#9"/>
    <trip id="41" depart="295.20" from="-180105210#2" to="1303484297#2"/>
    <trip id="42" depart="302.40" from="119866180#2" to="-172795859#0"/>
    <trip id="43" depart="309.60" from="-213710819#1" to="183286146"/>
    <trip id="44" depart="316.80" from="-1134736935" to="437935592#1"/>
    <trip id="45" depart="324.00" from="-376349990#1" to="-151842124"/>
    <trip id="46" depart="331.20" from="-236244964#2" to="992705556"/>
    <trip id="47" depart="338.40" from="73030700" to="73032858#3"/>
    <trip id="48" depart="345.60" from="213710942#1" to="1189295118"/>
    <trip id="49" depart="352.80" from="255387132" to="1254255322#2"/>
    <trip id="50" depart="360.00" from="1170368738#5" to="-73030425#3"/>
    <trip id="51" depart="367.20" from="-1094107498" to="1187263709"/>
    <trip id="52" depart="374.40" from="-1332791803" to="-214785854#0"/>
    <trip id="53" depart="381.60" from="-1082914485" to="-1175564216"/>
    <trip id="54" depart="388.80" from="183279545" to="570946691#4"/>
    <trip id="55" depart="396.00" from="1189361144#0" to="-181613161"/>
    <trip id="56" depart="403.20" from="1343450065" to="-183279589#0"/>
    <trip id="57" depart="410.40" from="-476004441" to="169204559#3"/>
    <trip id="58" depart="417.60" from="-1343441065" to="988680594#1"/>
    <trip id="59" depart="424.80" from="1186804033#0" to="-474291186"/>
    <trip id="60" depart="432.00" from="-1123427073" to="1303405062"/>
    <trip id="61" depart="439.20" from="437935591" to="-1341763348"/>
    <trip id="62" depart="446.40" from="-151829686#1" to="1123427073"/>
    <trip id="63" depart="453.60" from="73032204#3" to="1190953572"/>
    <trip id="64" depart="460.80" from="988680594#2" to="1123869885#4"/>
    <trip id="65" depart="468.00" from="-214785856" to="215575628"/>
    <trip id="66" depart="475.20" from="-1186179796" to="214785886#1"/>
    <trip id="67" depart="482.40" from="-1304593671" to="1187598109"/>
    <trip id="68" depart="489.60" from="-1190294344" to="214785854#2"/>
    <trip id="69" depart="496.80" from="-1189295118" to="376349977"/>
    <trip id="70" depart="504.00" from="1187828094#0" to="1303484298#2"/>
    <trip id="71" depart="511.20" from="1265532933#1" to="183252927#0"/>
    <trip id="72" depart="518.40" from="49131844" to="-703825714#2"/>
    <trip id="73" depart="525.60" from="-704737823#1" to="1116273367"/>
    <trip id="74" depart="532.80" from="-1118012911" to="938638199#2"/>
    <trip id="75" depart="540.00" from="-183279569" to="72879143#1"/>
    <trip id="76" depart="547.20" from="554883180" to="476003248#1"/>
    <trip id="77" depart="554.40" from="424075149#1" to="376350002"/>
    <trip id="78" depart="561.60" from="-1105429834#1" to="-73030700"/>
    <trip id="79" depart="568.80" from="-992705555#3" to="988680592"/>
    <trip id="80" depart="576.00" from="-250294222#6" to="1125364252"/>
    <trip id="81" depart="583.20" from="1057093083#0" to="1267442521#3"/>
    <trip id="82" depart="590.40" from="992712232" to="775937830"/>
    <trip id="83" depart="597.60" from="788344765" to="986413516#1"/>
    <trip id="84" depart="604.80" from="769934251" to="1166098740#2"/>
    <trip id="85" depart="612.00" from="1434817927#0" to="1190826163"/>
    <trip id="86" depart="619.20" from="102531477#0" to="992141914"/>
    <trip id="87" depart="626.40" from="-1285481595" to="697913239#1"/>
    <trip id="88" depart="633.60" from="377007991#0" to="1303407346"/>
    <trip id="89" depart="640.80" from="181613191#0" to="-992712233"/>
    <trip id="90" depart="648.00" from="-1175596111" to="-214785866#0"/>
    <trip id="91" depart="655.20" from="-681314002" to="1125364252"/>
    <trip id="92" depart="662.40" from="-377007957#1" to="1303405061"/>
    <trip id="93" depart="669.60" from="183286143#2" to="214785801#2"/>
    <trip id="94" depart="676.80" from="-788380131#2" to="691681556"/>
    <trip id="95" depart="684.00" from="-376350070#1" to="73032198#4"/>
    <trip id="96" depart="691.20" from="-685906434" to="741812807#1"/>
    <trip id="97" depart="698.40" from="1303484298#0" to="437924222"/>
    <trip id="98" depart="705.60" from="-152356994#1" to="-1190308772"/>
    <trip id="99" depart="712.80" from="-1009561552" to="705340545#1"/>
    <trip id="100" depart="720.00" from="-1190953572" to="214785803#5"/>
    <trip id="101" depart="727.20" from="151829697#8" to="715173427#5"/>
    <trip id="102" depart="734.40" from="1303431249#0" to="-73030447#2"/>
    <trip id="103" depart="741.60" from="1148789247" to="575516290#1"/>
    <trip id="104" depart="748.80" from="-992705555#3" to="-1131532305"/>
    <trip id="105" depart="756.00" from="-1187273841" to="1328767105#2"/>
    <trip id="106" depart="763.20" from="-377007990" to="-102523714#0"/>
    <trip id="107" depart="770.40" from="-1186182388" to="-704737823#0"/>
    <trip id="108" depart="777.60" from="-183279550" to="-377007986#0"/>
    <trip id="109" depart="784.80" from="-1203883656" to="-181613161"/>
    <trip id="110" depart="792.00" from="-1189159116" to="437923424#1"/>
    <trip id="111" depart="799.20" from="1430800495#1" to="1254239330#2"/>
    <trip id="112" depart="806.40" from="-214785827#3" to="1175890758"/>
    <trip id="113" depart="813.60" from="-236244964#2" to="-73032858#3"/>
    <trip id="114" depart="820.80" from="-1189159118" to="22858176#1"/>
    <trip id="115" depart="828.00" from="775978068" to="-1333717589"/>
    <trip id="116" depart="835.20" from="183255900#0" to="183279539#5"/>
    <trip id="117" depart="842.40" from="1187825276" to="1342404739"/>
    <trip id="118" depart="849.60" from="-169205165#7" to="1343443860"/>
    <trip id="119" depart="856.80" from="-319375191" to="22857735#1"/>
    <trip id="120" depart="864.00" from="213710894" to="1090898709"/>
    <trip id="121" depart="871.20" from="-73032198#2" to="-181613161"/>
    <trip id="122" depart="878.40" from="-1187598109" to="788380131#1"/>
    <trip id="123" depart="885.60" from="-1176166487" to="-1175564216"/>
    <trip id="124" depart="892.80" from="1251117270#1" to="-1303406355"/>
    <trip id="125" depart="900.00" from="1175558378" to="72878708#1"/>
    <trip id="126" depart="907.20" from="-73074503#11" to="1187199253"/>
    <trip id="127" depart="914.40" from="-72881199#3" to="-697913241"/>
    <trip id="128" depart="921.60" from="214785858#0" to="183279554"/>
    <trip id="129" depart="928.80" from="-1303431247#3" to="-1216159958"/>
    <trip id="130" depart="936.00" from="-73030704#0" to="183286152"/>
    <trip id="131" depart="943.20" from="449226990" to="376350067#1"/>
    <trip id="132" depart="950.40" from="-214785797#1" to="988680597#7"/>
    <trip id="133" depart="957.60" from="-992705552" to="1457462295"/>
    <trip id="134" depart="964.80" from="183252909" to="1118833518"/>
    <trip id="135" depart="972.00" from="1090898710#4" to="1149056374#0"/>
    <trip id="136" depart="979.20" from="-1398441687" to="1092139662#3"/>
    <trip id="137" depart="986.40" from="-377007981#1" to="474731322"/>
    <trip id="138" depart="993.60" from="73037905#0" to="1328766181"/>
    <trip id="139" depart="1000.80" from="72878027#6" to="1187828346"/>
    <trip id="140" depart="1008.00" from="474291186" to="-1175561783"/>
    <trip id="141" depart="1015.20" from="1175236281#0" to="1176166489"/>
    <trip id="142" depart="1022.40" from="-73048718#1" to="183279539#0"/>
    <trip id="143" depart="1029.60" from="1170368738#1" to="250294222#0"/>
    <trip id="144" depart="1036.80" from="-473486512" to="1123840435#2"/>
    <trip id="145" depart="1044.00" from="145259482#0" to="202565742#8"/>
    <trip id="146" depart="1051.20" from="769934251" to="1186182388"/>
    <trip id="147" depart="1058.40" from="152371614#2" to="1334174227#2"/>
    <trip id="148" depart="1065.60" from="-73030447#6" to="1175594900"/>
    <trip id="149" depart="1072.80" from="1267422544" to="202565742#8"/>
    <trip id="150" depart="1080.00" from="-83336646#4" to="-1166098740#2"/>
    <trip id="151" depart="1087.20" from="-73042196" to="-1175561463"/>
    <trip id="152" depart="1094.40" from="705340545#0" to="73048134#2"/>
    <trip id="153" depart="1101.60" from="236244963#0" to="437923424#1"/>
    <trip id="154" depart="1108.80" from="715173427#4" to="-250294222#4"/>
    <trip id="155" depart="1116.00" from="1120331189#6" to="789202693#1"/>
    <trip id="156" depart="1123.20" from="1175874709" to="-1054980473#8"/>
    <trip id="157" depart="1130.40" from="988680596#0" to="785270122#1"/>
    <trip id="158" depart="1137.60" from="1282468086#0" to="-685912907"/>
    <trip id="159" depart="1144.80" from="181613187#0" to="437935580"/>
    <trip id="160" depart="1152.00" from="570946691#4" to="72878023#11"/>
    <trip id="161" depart="1159.20" from="102532301#0" to="-437935583#0"/>
    <trip id="162" depart="1166.40" from="1170572266" to="988472901#8"/>
    <trip id="163" depart="1173.60" from="-214785803#5" to="183279532#5"/>
    <trip id="164" depart="1180.80" from="121150210" to="-377007999#1"/>
    <trip id="165" depart="1188.00" from="-476007674" to="-438777354#0"/>
    <trip id="166" depart="1195.20" from="788401442#2" to="1136975868"/>
    <trip id="167" depart="1202.40" from="-73048151#0" to="377007966#1"/>
    <trip id="168" depart="1209.60" from="-376350067#0" to="1124062595#9"/>
    <trip id="169" depart="1216.80" from="-1189646371" to="437935592#1"/>
    <trip id="170" depart="1224.00" from="-213710923" to="-697719291"/>
    <trip id="171" depart="1231.20" from="73032857#1" to="1309530688"/>
    <trip id="172" depart="1238.40" from="-181218217" to="1303431247#2"/>
    <trip id="173" depart="1245.60" from="-183279569" to="213710816#7"/>
    <trip id="174" depart="1252.80" from="788344772#0" to="183279539#5"/>
    <trip id="175" depart="1260.00" from="-775937830" to="163819015"/>
    <trip id="176" depart="1267.20" from="22857513#1" to="-473297865#0"/>
    <trip id="177" depart="1274.40" from="-1455920469" to="438525562"/>
    <trip id="178" depart="1281.60" from="-1187515760" to="-377007991#0"/>
    <trip id="179" depart="1288.80" from="-789155592" to="-72878022#1"/>
    <trip id="180" depart="1296.00" from="-1303402612#0" to="183248165#1"/>
    <trip id="181" depart="1303.20" from="1303484298#0" to="473493132"/>
    <trip id="182" depart="1310.40" from="208706078#0" to="1120331189#5"/>
    <trip id="183" depart="1317.60" from="474291186" to="72878023#0"/>
    <trip id="184" depart="1324.80" from="-1303431247#3" to="476003808#1"/>
    <trip id="185" depart="1332.00" from="1123840436#3" to="1343438458#1"/>
    <trip id="186" depart="1339.20" from="73031451#0" to="1332816874"/>
    <trip id="187" depart="1346.40" from="-183688259" to="-214785803#6"/>
    <trip id="188" depart="1353.60" from="-931246791" to="377007986#2"/>
    <trip id="189" depart="1360.80" from="180849290" to="1175890758"/>
    <trip id="190" depart="1368.00" from="-1122603588#1" to="-1342403299"/>
    <trip id="191" depart="1375.20" from="-377008001#3" to="697909109"/>
    <trip id="192" depart="1382.40" from="-652193147" to="1331531648"/>
    <trip id="193" depart="1389.60" from="73048152" to="214785886#1"/>
    <trip id="194" depart="1396.80" from="-183248165#1" to="-73048145"/>
    <trip id="195" depart="1404.00" from="1382275894" to="1258637588#2"/>
    <trip id="196" depart="1411.20" from="-152356998#4" to="72878027#3"/>
    <trip id="197" depart="1418.40" from="1258637588#3" to="1187598109"/>
    <trip id="198" depart="1425.60" from="22857094#1" to="788380128"/>
    <trip id="199" depart="1432.80" from="-181218227" to="1082914485"/>
    <trip id="200" depart="1440.00" from="-183252749#2" to="1303484297#2"/>
    <trip id="201" depart="1447.20" from="376350070#0" to="73032198#4"/>
    <trip id="202" depart="1454.40" from="183252927#1" to="-1216159958"/>
    <trip id="203" depart="1461.60" from="-1187328642" to="-439786039"/>
    <trip id="204" depart="1468.80" from="151829697#5" to="437924225#3"/>
    <trip id="205" depart="1476.00" from="1090898710#5" to="473280428"/>
    <trip id="206" depart="1483.20" from="-1457462294#1" to="1265532932"/>
    <trip id="207" depart="1490.40" from="-1189159118" to="-377007999#1"/>
    <trip id="208" depart="1497.60" from="1411123738#2" to="151842124"/>
    <trip id="209" depart="1504.80" from="-474292463" to="1251117270#1"/>
    <trip id="210" depart="1512.00" from="250294223#8" to="-1303405063"/>
    <trip id="211" depart="1519.20" from="72878027#7" to="-72879991"/>
    <trip id="212" depart="1526.40" from="-1082914485" to="1189295118"/>
    <trip id="213" depart="1533.60" from="1190308772" to="-214785806"/>
    <trip id="214" depart="1540.80" from="-1303402610" to="749329736#3"/>
    <trip id="215" depart="1548.00" from="1216159958" to="1237746959#1"/>
    <trip id="216" depart="1555.20" from="437935582#1" to="1303431249#1"/>
    <trip id="217" depart="1562.40" from="377007991#0" to="102523714#4"/>
    <trip id="218" depart="1569.60" from="-181218227" to="476004441"/>
    <trip id="219" depart="1576.80" from="-1457462294#1" to="788380131#2"/>
    <trip id="220" depart="1584.00" from="22857735#9" to="697909656"/>
    <trip id="221" depart="1591.20" from="437924235" to="377007978"/>
    <trip id="222" depart="1598.40" from="102532301#5" to="-1131086246"/>
    <trip id="223" depart="1605.60" from="214785803#2" to="83337269#3"/>
    <trip id="224" depart="1612.80" from="-474343546" to="988068739#0"/>
    <trip id="225" depart="1620.00" from="-1190087462" to="-22857444"/>
    <trip id="226" depart="1627.20" from="681314001#1" to="1175236281#1"/>
    <trip id="227" depart="1634.40" from="-1186659195" to="-152365512"/>
    <trip id="228" depart="1641.60" from="1124983205" to="1343441065"/>
    <trip id="229" depart="1648.80" from="214785861#3" to="1341763347#1"/>
    <trip id="230" depart="1656.00" from="377007977#0" to="235882320#0"/>
    <trip id="231" depart="1663.20" from="74878066#0" to="-376349998#1"/>
    <trip id="232" depart="1670.40" from="1054980473#3" to="214785841"/>
    <trip id="233" depart="1677.60" from="1142095291#7" to="-180849292"/>
    <trip id="234" depart="1684.80" from="-1189361146" to="-214785859#1"/>
    <trip id="235" depart="1692.00" from="22857665#0" to="22857103#3"/>
    <trip id="236" depart="1699.20" from="-1332791803" to="1138271312#1"/>
    <trip id="237" depart="1706.40" from="-73074502" to="-1304627778#1"/>
    <trip id="238" depart="1713.60" from="992141888" to="1267442521#3"/>
    <trip id="239" depart="1720.80" from="1303449217" to="73040856"/>
    <trip id="240" depart="1728.00" from="1330632312" to="-992141888"/>
    <trip id="241" depart="1735.20" from="-1192046560" to="-437935590"/>
    <trip id="242" depart="1742.40" from="-1124062589#1" to="250294223#1"/>
    <trip id="243" depart="1749.60" from="72881199#1" to="-214785803#2"/>
    <trip id="244" depart="1756.80" from="-789155592" to="-377007953#0"/>
    <trip id="245" depart="1764.00" from="376349990#0" to="-1175245681#2"/>
    <trip id="246" depart="1771.20" from="-214785827#3" to="377007981#1"/>
    <trip id="247" depart="1778.40" from="1091141296" to="1332791803"/>
    <trip id="248" depart="1785.60" from="-152356998#4" to="83337269#5"/>
    <trip id="249" depart="1792.80" from="788380131#0" to="1237198320#0"/>
    <trip id="250" depart="1800.00" from="-437935592#1" to="-439786039"/>
    <trip id="251" depart="1807.20" from="151829688#6" to="437935594"/>
    <trip id="252" depart="1814.40" from="-250294223#9" to="1175566831"/>
    <trip id="253" depart="1821.60" from="-992705550" to="-214785861#1"/>
    <trip id="254" depart="1828.80" from="1009561553" to="-1324970653#1"/>
    <trip id="255" depart="1836.00" from="-1175518212" to="-73032857#1"/>
    <trip id="256" depart="1843.20" from="-257802532#4" to="1186765029"/>
    <trip id="257" depart="1850.40" from="474211363#2" to="-1105130746"/>
    <trip id="258" depart="1857.60" from="-183688259" to="-73031451#0"/>
    <trip id="259" depart="1864.80" from="-183252725#2" to="-1304627779"/>
    <trip id="260" depart="1872.00" from="-183252734#2" to="1343438457#1"/>
    <trip id="261" depart="1879.20" from="-437935580" to="-152365511#4"/>
    <trip id="262" depart="1886.40" from="-1303402611" to="-183252909"/>
    <trip id="263" depart="1893.60" from="570946691#12" to="788752293#0"/>
    <trip id="264" depart="1900.80" from="-473493077#1" to="437924239#1"/>
    <trip id="265" depart="1908.00" from="214785799#2" to="73040852#5"/>
    <trip id="266" depart="1915.20" from="-1175561463" to="1175596111"/>
    <trip id="267" depart="1922.40" from="1303484297#0" to="1342054313"/>
    <trip id="268" depart="1929.60" from="-1175869757#0" to="1254239330#2"/>
    <trip id="269" depart="1936.80" from="-992141914" to="1262150253#0"/>
    <trip id="270" depart="1944.00" from="22857733#1" to="1190952945"/>
    <trip id="271" depart="1951.20" from="-703825714#0" to="476051977#0"/>
    <trip id="272" depart="1958.40" from="-1303407342#0" to="-1054980473#1"/>
    <trip id="273" depart="1965.60" from="-1094107498" to="1176163759"/>
    <trip id="274" depart="1972.80" from="1303484297#0" to="-439786039"/>
    <trip id="275" depart="1980.00" from="417318176#1" to="476003837"/>
    <trip id="276" depart="1987.20" from="-73031452#1" to="1123869885#4"/>
    <trip id="277" depart="1994.40" from="-1189623972" to="307958337"/>
    <trip id="278" depart="2001.60" from="-474211363#1" to="1228865283#0"/>
    <trip id="279" depart="2008.80" from="-1332792364" to="183279554"/>
    <trip id="280" depart="2016.00" from="-1189361146" to="72879613#1"/>
    <trip id="281" depart="2023.20" from="-1304594350" to="377007963#1"/>
    <trip id="282" depart="2030.40" from="22857103#6" to="72878890#3"/>
    <trip id="283" depart="2037.60" from="22857308#3" to="1186765029"/>
    <trip id="284" depart="2044.80" from="-1189780860" to="22857142#0"/>
    <trip id="285" depart="2052.00" from="250294222#0" to="-1330632312"/>
    <trip id="286" depart="2059.20" from="-22857746#4" to="213710923"/>
    <trip id="287" depart="2066.40" from="-72878019#1" to="183279589#3"/>
    <trip id="288" depart="2073.60" from="-1187592128" to="152371614#3"/>
    <trip id="289" depart="2080.80" from="22856709#0" to="-255387123#1"/>
    <trip id="290" depart="2088.00" from="-474292463" to="183252910#2"/>
    <trip id="291" depart="2095.20" from="213710816#4" to="1124062590#1"/>
    <trip id="292" depart="2102.40" from="72878023#9" to="-433813655#1"/>
    <trip id="293" depart="2109.60" from="-183252734#0" to="1124983204"/>
    <trip id="294" depart="2116.80" from="-213710816#6" to="-1175540311"/>
    <trip id="295" depart="2124.00" from="-1457462295" to="-439786039"/>
    <trip id="296" depart="2131.20" from="-73048718#1" to="1175236281#1"/>
    <trip id="297" depart="2138.40" from="-1105130745" to="-300219909#0"/>
    <trip id="298" depart="2145.60" from="-437935580" to="152357982#3"/>
    <trip id="299" depart="2152.80" from="1190951848" to="-73074504"/>
    <trip id="300" depart="2160.00" from="1177833747" to="474343546"/>
    <trip id="301" depart="2167.20" from="-474537484#0" to="181613189"/>
    <trip id="302" depart="2174.40" from="-474731352" to="-169206393#0"/>
    <trip id="303" depart="2181.60" from="214785827#1" to="-1009561553"/>
    <trip id="304" depart="2188.80" from="214785861#2" to="992712215#0"/>
    <trip id="305" depart="2196.00" from="73030447#1" to="992705555#3"/>
    <trip id="306" depart="2203.20" from="73040852#3" to="376349993"/>
    <trip id="307" depart="2210.40" from="1120331189#7" to="1343441065"/>
    <trip id="308" depart="2217.60" from="1430799043" to="-681314001#0"/>
    <trip id="309" depart="2224.80" from="1175532290#5" to="49132049#1"/>
    <trip id="310" depart="2232.00" from="1332789097#1" to="213710994"/>
    <trip id="311" depart="2239.20" from="377007953#6" to="-72879991"/>
    <trip id="312" depart="2246.40" from="438775877#0" to="-788380132#0"/>
    <trip id="313" depart="2253.60" from="-1203883656" to="-1123798145"/>
    <trip id="314" depart="2260.80" from="988680597#9" to="1304594350"/>
    <trip id="315" depart="2268.00" from="183279539#1" to="1343438458#1"/>
    <trip id="316" depart="2275.20" from="73042194#8" to="1254243226#0"/>
    <trip id="317" depart="2282.40" from="-1187328642" to="992705550"/>
    <trip id="318" depart="2289.60" from="1190311283#1" to="-22857094#0"/>
    <trip id="319" depart="2296.80" from="1124983205" to="1176163759"/>
    <trip id="320" depart="2304.00" from="-1176166489" to="1144579238#2"/>
    <trip id="321" depart="2311.20" from="-437924226#0" to="1176166490"/>
    <trip id="322" depart="2318.40" from="-474731352" to="-214785880#0"/>
    <trip id="323" depart="2325.60" from="-1303405062" to="-102532301#5"/>
    <trip id="324" depart="2332.80" from="-437924222" to="474731322"/>
    <trip id="325" depart="2340.00" from="73032689#0" to="1190086693"/>
    <trip id="326" depart="2347.20" from="72879613#1" to="-377007957#1"/>
    <trip id="327" depart="2354.40" from="-169204804" to="-22857513#0"/>
    <trip id="328" depart="2361.60" from="741812807#0" to="1189646371"/>
    <trip id="329" depart="2368.80" from="183252750#1" to="1175019350#7"/>
    <trip id="330" depart="2376.00" from="788380128" to="1189622043"/>
    <trip id="331" depart="2383.20" from="27054982#2" to="1203883656"/>
    <trip id="332" depart="2390.40" from="-1187828094#1" to="681314002"/>
    <trip id="333" depart="2397.60" from="-181613187#1" to="1063794428#1"/>
    <trip id="334" depart="2404.80" from="-1341763346#1" to="214785886#1"/>
    <trip id="335" depart="2412.00" from="-473280428" to="1111772023"/>
    <trip id="336" depart="2419.20" from="1356901750#1" to="-437935585"/>
    <trip id="337" depart="2426.40" from="-1332792363" to="1175014413"/>
    <trip id="338" depart="2433.60" from="-476003808#1" to="486561069#2"/>
    <trip id="339" depart="2440.80" from="125337464#0" to="992141914"/>
    <trip id="340" depart="2448.00" from="-476003982" to="473263065"/>
    <trip id="341" depart="2455.20" from="697691070" to="1125364252"/>
    <trip id="342" depart="2462.40" from="-152356994#0" to="1303405061"/>
    <trip id="343" depart="2469.60" from="-73032692" to="1187199253"/>
    <trip id="344" depart="2476.80" from="-376350067#1" to="169205165#7"/>
    <trip id="345" depart="2484.00" from="22857783" to="183279532#5"/>
    <trip id="346" depart="2491.20" from="-1189159118" to="1138271312#1"/>
    <trip id="347" depart="2498.40" from="-1303402610" to="377007970#1"/>
    <trip id="348" depart="2505.60" from="-474537484#2" to="-73037236"/>
    <trip id="349" depart="2512.80" from="-395042189#1" to="940618572"/>
    <trip id="350" depart="2520.00" from="-1190956290" to="-681314655#1"/>
    <trip id="351" depart="2527.20" from="-183688259" to="-22857094#3"/>
    <trip id="352" depart="2534.40" from="1303484298#0" to="1124062595#2"/>
    <trip id="353" depart="2541.60" from="121150210" to="-151829686#1"/>
    <trip id="354" depart="2548.80" from="119869841" to="988472901#1"/>
    <trip id="355" depart="2556.00" from="-1175566831" to="376349990#1"/>
    <trip id="356" depart="2563.20" from="-1343438458#1" to="-214785866#1"/>
    <trip id="357" depart="2570.40" from="-1094107498" to="202565699"/>
    <trip id="358" depart="2577.60" from="-1457462294#1" to="-152365513#1"/>
    <trip id="359" depart="2584.80" from="-183252734#2" to="988680596#0"/>
    <trip id="360" depart="2592.00" from="-1187199253" to="476007674"/>
    <trip id="361" depart="2599.20" from="-1187273841" to="1309530687#0"/>
    <trip id="362" depart="2606.40" from="-1189780860" to="119866180#2"/>
    <trip id="363" depart="2613.60" from="183279532#4" to="681314655#1"/>
    <trip id="364" depart="2620.80" from="72879628#2" to="788380131#2"/>
    <trip id="365" depart="2628.00" from="-1187828346" to="-181613161"/>
    <trip id="366" depart="2635.20" from="-181613157#1" to="-208706078#1"/>
    <trip id="367" depart="2642.40" from="-183252908#1" to="183115010"/>
    <trip id="368" depart="2649.60" from="685912907" to="-1303431250#0"/>
    <trip id="369" depart="2656.80" from="-1149821143" to="1009561552"/>
    <trip id="370" depart="2664.00" from="-1187589516" to="1176166489"/>
    <trip id="371" depart="2671.20" from="-72887511#6" to="376350070#1"/>
    <trip id="372" depart="2678.40" from="22858368#9" to="181218217"/>
    <trip id="373" depart="2685.60" from="-183252734#0" to="697908033#0"/>
    <trip id="374" depart="2692.80" from="1091141296" to="-474211363#1"/>
    <trip id="375" depart="2700.00" from="1009561553" to="1187273841"/>
    <trip id="376" depart="2707.20" from="22858707#6" to="377008001#3"/>
    <trip id="377" depart="2714.40" from="788344772#0" to="-437935583#0"/>
    <trip id="378" depart="2721.60" from="-152365513#2" to="1304593671"/>
    <trip id="379" depart="2728.80" from="1303406355" to="73040852#1"/>
    <trip id="380" depart="2736.00" from="-474211363#6" to="1134736935"/>
    <trip id="381" depart="2743.20" from="22857665#5" to="-377007991#2"/>
    <trip id="382" depart="2750.40" from="-376349990#1" to="181613182#1"/>
    <trip id="383" depart="2757.60" from="214785799#2" to="-1175592346"/>
    <trip id="384" depart="2764.80" from="-245066188" to="1186180844"/>
    <trip id="385" depart="2772.00" from="-213710927" to="1256576156"/>
    <trip id="386" depart="2779.20" from="-1303405062" to="988472901#8"/>
    <trip id="387" depart="2786.40" from="73030447#6" to="473297865#1"/>
    <trip id="388" depart="2793.60" from="83337263#2" to="377007953#1"/>
    <trip id="389" depart="2800.80" from="73042256#1" to="-1303406355"/>
    <trip id="390" depart="2808.00" from="-377007955" to="-102532301#4"/>
    <trip id="391" depart="2815.20" from="-377007992" to="1009561552"/>
    <trip id="392" depart="2822.40" from="-151842129#0" to="-1341763346#0"/>
    <trip id="393" depart="2829.60" from="-1187220670#1" to="-102523714#4"/>
    <trip id="394" depart="2836.80" from="-1303484298#1" to="1189780860"/>
    <trip id="395" depart="2844.00" from="73040852#2" to="-1123798145"/>
    <trip id="396" depart="2851.20" from="-22858061#2" to="73031453#1"/>
    <trip id="397" depart="2858.40" from="1303431250#0" to="775937830"/>
    <trip id="398" depart="2865.60" from="1175540311" to="1186765029"/>
    <trip id="399" depart="2872.80" from="250294224#3" to="775937830"/>
    <trip id="400" depart="2880.00" from="775937829" to="73074503#3"/>
    <trip id="401" depart="2887.20" from="-1434817927#1" to="377007960"/>
    <trip id="402" depart="2894.40" from="-183279550" to="-163822995"/>