<?xml version="1.0" encoding="UTF-8"?>

<!-- generated on 2025-12-13T22:57:50.904754+05:30 by Eclipse SUMO netconvert 1.25.0
<netconvertConfiguration xmlns:xsi="http://www.w3.org/2001/XMLSchema-instance" xsi:noNamespaceSchemaLocation="http://sumo.dlr.de/xsd/netconvertConfiguration.xsd">

    <input>
        <type-files value="C:\SUMO\sumo-1.25.0\data\typemap\osmNetconvert.typ.xml"/>
        <osm-files value="sumo_data\mumbai_andheri.osm"/>
    </input>

    <output>
        <output-file value="sumo_data\mumbai.net.xml"/>
    </output>

    <projection>
        <proj.utm value="true"/>
    </projection>

    <processing>
        <geometry.remove value="false"/>
        <roundabouts.guess value="true"/>
    </processing>

    <tls_building>
        <tls.guess value="true"/>
        <tls.join value="true"/>
        <tls.guess-signals value="true"/>
        <tls.green.time value="31"/>
        <tls.yellow.time value="6"/>
        <tls.default-type value="actuated"/>
    </tls_building>

    <edge_removal>
        <keep-edges.by-vclass value="passenger,emergency"/>
        <remove-edges.isolated value="true"/>
    </edge_removal>

    <junctions>
        <junctions.join value="true"/>
        <junctions.corner-detail value="5"/>
    </junctions>

    <report>
        <xml-validation value="never"/>
        <no-warnings value="true"/>
        <ignore-errors.edge-type value="true"/>
    </report>

</netconvertConfiguration>
-->

<net version="1.20" junctionCornerDetail="5" limitTurnSpeed="5.50" xmlns:xsi="http://www.w3.org/2001/XMLSchema-instance" xsi:noNamespaceSchemaLocation="http://sumo.dlr.de/xsd/net_file.xsd">

    <location netOffset="-271290.03,-2113962.05" convBoundary="0.00,0.00,3926.86,2598.60" origBoundary="72.825665,19.106005,72.864868,19.129352" projParameter="+proj=utm +zone=43 +ellps=WGS84 +datum=WGS84 +units=m +no_defs"/>

    <type id="highway.primary" priority="12" numLanes="2" speed="27.78" disallow="tram rail_urban rail rail_electric rail_fast ship container cable_car subway aircraft wheelchair scooter drone" oneway="0"/>
    <type id="highway.residential" priority="3" numLanes="1" speed="13.89" disallow="tram rail_urban rail rail_electric rail_fast ship container cable_car subway aircraft wheelchair scooter drone" oneway="0"/>
    <type id="highway.secondary" priority="11" numLanes="1" speed="27.78" disallow="tram rail_urban rail rail_electric rail_fast ship container cable_car subway aircraft wheelchair scooter drone" oneway="0"/>
    <type id="highway.secondary_link" priority="6" numLanes="1" speed="22.22" disallow="tram rail_urban rail rail_electric rail_fast ship container cable_car subway aircraft wheelchair scooter drone" oneway="0"/>
    <type id="highway.tertiary" priority="10" numLanes="1" speed="22.22" disallow="tram rail_urban rail rail_electric rail_fast ship container cable_car subway aircraft wheelchair scooter drone" oneway="0"/>

    <edge id=":10277590773_0" function="internal">
        <lane id=":10277590773_0_0" index="0" disallow="tram rail_urban rail rail_electric rail_fast ship container cable_car subway aircraft wheelchair scooter drone" speed="3.91" length="2.49" shape="1463.10,2265.03 1463.43,2265.63 1463.87,2265.99 1464.42,2266.10 1465.09,2265.99"/>
    </edge>
    <edge id=":10277590774_0" function="internal">
        <lane id=":10277590774_0_0" index="0" disallow="tram rail_urban rail rail_electric rail_fast ship container cable_car subway aircraft wheelchair scooter drone" speed="7.96" length="14.82" shape="1462.90,2247.12 1460.58,2248.60 1459.53,2251.29 1459.76,2255.16 1461.28,2260.24"/>
    </edge>
    <edge id=":10279333671_0" function="internal">
        <lane id=":10279333671_0_0" index="0" disallow="tram rail_urban rail rail_electric rail_fast ship container cable_car subway aircraft wheelchair scooter drone" speed="25.00" length="0.56" shape="419.27,130.79 419.31,130.62 419.40,130.46 419.44,130.36 419.36,130.33"/>
    </edge>
    <edge id=":10279333671_1" function="internal">
        <lane id=":10279333671_1_0" index="0" disallow="tram rail_urban rail rail_electric rail_fast ship container cable_car subway aircraft wheelchair scooter drone" speed="5.34" length="5.77" shape="419.27,130.79 420.00,130.29 421.69,130.16 423.57,130.21 424.87,130.27"/>
    </edge>
    <edge id=":10279333677_0" function="internal">
        <lane id=":10279333677_0_0" index="0" disallow="tram rail_urban rail rail_electric rail_fast ship container cable_car subway aircraft wheelchair scooter drone" speed="5.33" length="6.62" shape="1145.89,122.33 1143.31,122.07 1141.49,122.21 1140.42,122.76 1140.11,123.71"/>
    </edge>
    <edge id=":10279333677_1" function="internal">
        <lane id=":10279333677_1_0" index="0" disallow="tram rail_urban rail rail_electric rail_fast ship container cable_car subway aircraft wheelchair scooter drone" speed="5.85" length="6.87" shape="1131.23,121.24 1133.66,121.38 1135.42,121.86 1136.50,122.70 1136.91,123.88"/>
    </edge>
    <edge id=":10653536589_0" function="internal">
        <lane id=":10653536589_0_0" index="0" disallow="tram rail_urban rail rail_electric rail_fast ship container cable_car subway aircraft wheelchair scooter drone" speed="4.26" length="3.08" shape="3609.36,938.32 3611.87,940.09"/>
    </edge>
    <edge id=":1154216502_0" function="internal">
        <lane id=":1154216502_0_0" index="0" disallow="tram rail_urban rail rail_electric rail_fast ship container cable_car subway aircraft wheelchair scooter drone" speed="7.20" length="7.92" shape="3066.55,1144.81 3064.71,1146.29 3063.50,1147.87 3062.92,1149.55 3062.96,1151.34"/>
    </edge>
    <edge id=":1154216502_1" function="internal">
        <lane id=":1154216502_1_0" index="0" disallow="tram rail_urban rail rail_electric rail_fast ship container cable_car subway aircraft wheelchair scooter drone" speed="22.22" length="8.92" shape="3061.43,1142.56 3062.96,1151.34"/>
    </edge>
    <edge id=":1154216503_0" function="internal">
        <lane id=":1154216503_0_0" index="0" disallow="tram rail_urban rail rail_electric rail_fast ship container cable_car subway aircraft wheelchair scooter drone" speed="3.92" length="3.30" shape="3095.48,1128.23 3095.12,1127.34 3094.60,1126.89 3093.91,1126.87 3093.04,1127.28"/>
    </edge>
    <edge id=":1936355587_0" function="internal">
        <lane id=":1936355587_0_0" index="0" disallow="tram rail_urban rail rail_electric rail_fast ship container cable_car subway aircraft wheelchair scooter drone" speed="5.65" length="9.16" shape="1896.45,1138.59 1899.07,1137.83 1900.34,1136.53 1900.26,1134.69 1898.84,1132.31"/>
        <lane id=":1936355587_0_1" index="1" disallow="tram rail_urban rail rail_electric rail_fast ship container cable_car subway aircraft wheelchair scooter drone" speed="6.59" length="12.99" shape="1896.45,1138.59 1900.59,1137.51 1902.79,1135.77 1903.04,1133.38 1901.35,1130.33"/>
    </edge>
    <edge id=":1936627968_0" function="internal">
        <lane id=":1936627968_0_0" index="0" disallow="tram rail_urban rail rail_electric rail_fast ship container cable_car subway aircraft wheelchair scooter drone" speed="7.72" length="6.93" shape="1898.22,1126.37 1897.02,1126.01 1894.93,1125.98 1892.76,1126.11 1891.35,1126.22"/>
    </edge>
    <edge id=":1936627976_0" function="internal">
        <lane id=":1936627976_0_0" index="0" disallow="tram rail_urban rail rail_electric rail_fast ship container cable_car subway aircraft wheelchair scooter drone" speed="5.61" length="9.03" shape="1891.15,1126.23 1888.55,1126.72 1887.23,1127.89 1887.18,1129.72 1888.40,1132.23"/>
        <lane id=":1936627976_0_1" index="1" disallow="tram rail_urban rail rail_electric rail_fast ship container cable_car subway aircraft wheelchair scooter drone" speed="6.55" length="12.87" shape="1891.15,1126.23 1887.00,1126.90 1884.71,1128.42 1884.28,1130.78 1885.72,1133.98"/>
    </edge>
    <edge id=":245672659_0" function="internal">
        <lane id=":245672659_0_0" index="0" disallow="tram rail_urban rail rail_electric rail_fast ship container cable_car subway aircraft wheelchair scooter drone" speed="7.54" length="8.36" shape="1888.27,1137.87 1889.20,1138.57 1890.86,1138.93 1893.24,1138.94 1896.34,1138.61"/>
    </edge>
    <edge id=":296851160_0" function="internal">
        <lane id=":296851160_0_0" index="0" disallow="tram rail_urban rail rail_electric rail_fast ship container cable_car subway aircraft wheelchair scooter drone" speed="3.91" length="2.54" shape="1472.39,2263.61 1473.01,2263.30 1473.39,2262.87 1473.53,2262.31 1473.42,2261.62"/>
    </edge>
    <edge id=":3878413319_0" function="internal">
        <lane id=":3878413319_0_0" index="0" disallow="tram rail_urban rail rail_electric rail_fast ship container cable_car subway aircraft wheelchair scooter drone" speed="3.96" length="1.95" shape="3099.31,1148.35 3099.69,1148.01 3099.93,1147.62 3100.02,1147.16 3099.96,1146.66"/>
    </edge>
    <edge id=":3878413320_0" function="internal">
        <lane id=":3878413320_0_0" index="0" disallow="tram rail_urban rail rail_electric rail_fast ship container cable_car subway aircraft wheelchair scooter drone" speed="5.81" length="9.14" shape="3065.51,1164.33 3066.39,1166.86 3067.77,1168.15 3069.66,1168.20 3072.06,1167.01"/>
    </edge>
    <edge id=":3878413320_1" function="internal">
        <lane id=":3878413320_1_0" index="0" disallow="tram rail_urban rail rail_electric rail_fast ship container cable_car subway aircraft wheelchair scooter drone" speed="27.78" length="11.52" shape="3062.46,1173.38 3072.06,1167.01"/>
    </edge>
    <edge id=":3878413328_0" function="internal">
        <lane id=":3878413328_0_0" index="0" disallow="tram rail_urban rail rail_electric rail_fast ship container cable_car subway aircraft wheelchair scooter drone" speed="6.53" length="8.25" shape="2645.15,1434.52 2646.79,1436.02 2648.56,1436.71 2650.46,1436.59 2652.48,1435.66"/>
    </edge>
    <edge id=":3878413328_1" function="internal">
        <lane id=":3878413328_1_0" index="0" disallow="tram rail_urban rail rail_electric rail_fast ship container cable_car subway aircraft wheelchair scooter drone" speed="3.65" length="4.67" shape="2645.15,1434.52 2645.30,1435.95 2644.94,1436.77 2644.07,1436.97 2642.68,1436.56"/>
    </edge>
    <edge id=":5488342597_0" function="internal">
        <lane id=":5488342597_0_0" index="0" disallow="tram rail_urban rail rail_electric rail_fast ship container cable_car subway aircraft wheelchair scooter drone" speed="3.65" length="4.67" shape="3441.62,179.32 3442.42,178.12 3443.22,177.72 3444.02,178.12 3444.82,179.32"/>
    </edge>
    <edge id=":5936572216_0" function="internal">
        <lane id=":5936572216_0_0" index="0" disallow="tram rail_urban rail rail_electric rail_fast ship container cable_car subway aircraft wheelchair scooter drone" speed="27.78" length="0.34" shape="3907.46,1257.60 3907.53,1257.67 3907.58,1257.72 3907.62,1257.78 3907.67,1257.86"/>
    </edge>
    <edge id=":623040889_0" function="internal">
        <lane id=":623040889_0_0" index="0" disallow="tram rail_urban rail rail_electric rail_fast ship container cable_car subway aircraft wheelchair scooter drone" speed="3.78" length="2.48" shape="426.89,1121.89 428.62,1123.67"/>
        <lane id=":623040889_0_1" index="1" disallow="tram rail_urban rail rail_electric rail_fast ship container cable_car subway aircraft wheelchair scooter drone" speed="3.82" length="2.57" shape="430.08,1122.05 430.02,1121.34 429.74,1120.84 429.24,1120.55 428.54,1120.47"/>
    </edge>
    <edge id=":623881375_0" function="internal">
        <lane id=":623881375_0_0" index="0" disallow="tram rail_urban rail rail_electric rail_fast ship container cable_car subway aircraft wheelchair scooter drone" speed="3.65" length="4.67" shape="2634.23,1426.35 2634.08,1424.92 2634.44,1424.10 2635.31,1423.90 2636.69,1424.31"/>
    </edge>
    <edge id=":9201422013_0" function="internal">
        <lane id=":9201422013_0_0" index="0" disallow="tram rail_urban rail rail_electric rail_fast ship container cable_car subway aircraft wheelchair scooter drone" speed="6.51" length="9.00" shape="1471.99,2256.90 1470.95,2254.67 1469.44,2253.30 1467.47,2252.80 1465.03,2253.16"/>
        <lane id=":9201422013_0_1" index="1" disallow="tram rail_urban rail rail_electric rail_fast ship container cable_car subway aircraft wheelchair scooter drone" speed="7.33" length="11.68" shape="1471.99,2256.90 1470.54,2253.33 1468.75,2251.01 1466.61,2249.93 1464.12,2250.10"/>
        <lane id=":9201422013_0_2" index="2" disallow="tram rail_urban rail rail_electric rail_fast ship container cable_car subway aircraft wheelchair scooter drone" speed="8.10" length="14.52" shape="1471.99,2256.90 1470.14,2251.99 1468.05,2248.71 1465.74,2247.05 1463.20,2247.03"/>
    </edge>
    <edge id=":cluster_10274112134_10636915871_1936355567_3008529668_0" function="internal">
        <lane id=":cluster_10274112134_10636915871_1936355567_3008529668_0_0" index="0" disallow="tram rail_urban rail rail_electric rail_fast ship container cable_car subway aircraft wheelchair scooter drone" speed="5.64" length="14.32" shape="1458.72,-1.32 1457.31,2.86 1455.26,4.68 1452.57,4.13 1449.25,1.22"/>
    </edge>
    <edge id=":cluster_10277590749_11924905690_1936499564_296853248_0" function="internal">
        <lane id=":cluster_10277590749_11924905690_1936499564_296853248_0_0" index="0" disallow="tram rail_urban rail rail_electric rail_fast ship container cable_car subway aircraft wheelchair scooter drone" speed="6.37" length="18.90" shape="2249.02,2381.13 2251.63,2375.91 2254.64,2373.91 2258.05,2375.11 2261.86,2379.52"/>
    </edge>
    <edge id=":cluster_10279333670_866726930_866835090_0" function="internal">
        <lane id=":cluster_10279333670_866726930_866835090_0_0" index="0" disallow="tram rail_urban rail rail_electric rail_fast ship container cable_car subway aircraft wheelchair scooter drone" speed="25.00" length="0.65" shape="419.16,130.35 419.27,130.99"/>
    </edge>
    <edge id=":cluster_10279333670_866726930_866835090_1" function="internal">
        <lane id=":cluster_10279333670_866726930_866835090_1_0" index="0" disallow="tram rail_urban rail rail_electric rail_fast ship container cable_car subway aircraft wheelchair scooter drone" speed="5.90" length="15.44" shape="419.16,130.35 423.90,129.87 426.60,131.07 427.26,133.95 425.88,138.51"/>
    </edge>
    <edge id=":cluster_10723296482_866807200_9771116368_9771116369_0" function="internal">
        <lane id=":cluster_10723296482_866807200_9771116368_9771116369_0_0" index="0" disallow="tram rail_urban rail rail_electric rail_fast ship container cable_car subway aircraft wheelchair scooter drone" speed="7.27" length="25.24" shape="1147.29,264.74 1151.07,257.93 1155.21,255.43 1159.69,257.23 1164.52,263.34"/>
    </edge>
    <edge id=":cluster_1154211731_5488342590_0" function="internal">
        <lane id=":cluster_1154211731_5488342590_0_0" index="0" disallow="tram rail_urban rail rail_electric rail_fast ship container cable_car subway aircraft wheelchair scooter drone" speed="9.05" length="18.47" shape="2910.27,333.17 2908.10,334.70 2907.05,338.05 2907.13,343.23 2908.33,350.25"/>
    </edge>
    <edge id=":cluster_1154211731_5488342590_1" function="internal">
        <lane id=":cluster_1154211731_5488342590_1_0" index="0" disallow="tram rail_urban rail rail_electric rail_fast ship container cable_car subway aircraft wheelchair scooter drone" speed="5.86" length="15.62" shape="2910.27,333.17 2914.77,334.91 2916.65,337.23 2915.93,340.13 2912.59,343.62"/>
    </edge>
    <edge id=":cluster_1154214582_1936627865_0" function="internal">
        <lane id=":cluster_1154214582_1936627865_0_0" index="0" disallow="tram rail_urban rail rail_electric rail_fast ship container cable_car subway aircraft wheelchair scooter drone" speed="10.41" length="22.53" shape="3009.14,776.44 3007.05,778.33 3006.00,782.53 3006.00,789.04 3007.05,797.85"/>
    </edge>
    <edge id=":cluster_1154214582_1936627865_1" function="internal">
        <lane id=":cluster_1154214582_1936627865_1_0" index="0" disallow="tram rail_urban rail rail_electric rail_fast ship container cable_car subway aircraft wheelchair scooter drone" speed="7.36" length="25.97" shape="3008.27,773.36 3015.90,775.84 3019.24,779.51 3018.31,784.40 3013.09,790.48"/>
    </edge>
    <edge id=":cluster_1154214582_1936627865_2" function="internal">
        <lane id=":cluster_1154214582_1936627865_2_0" index="0" disallow="tram rail_urban rail rail_electric rail_fast ship container cable_car subway aircraft wheelchair scooter drone" speed="9.72" length="22.55" shape="3001.56,769.35 3003.88,777.94 3006.44,783.81 3009.22,786.97 3012.22,787.40"/>
        <lane id=":cluster_1154214582_1936627865_2_1" index="1" disallow="tram rail_urban rail rail_electric rail_fast ship container cable_car subway aircraft wheelchair scooter drone" speed="10.33" length="25.64" shape="3001.56,769.35 3004.20,779.31 3007.00,786.15 3009.97,789.87 3013.09,790.48"/>
    </edge>
    <edge id=":cluster_1154214582_1936627865_4" function="internal">
        <lane id=":cluster_1154214582_1936627865_4_0" index="0" disallow="tram rail_urban rail rail_electric rail_fast ship container cable_car subway aircraft wheelchair scooter drone" speed="22.22" length="29.03" shape="3001.56,769.35 3007.05,797.85"/>
    </edge>
    <edge id=":cluster_1154214585_1936627863_0" function="internal">
        <lane id=":cluster_1154214585_1936627863_0_0" index="0" disallow="tram rail_urban rail rail_electric rail_fast ship container cable_car subway aircraft wheelchair scooter drone" speed="7.29" length="25.42" shape="3041.86,781.99 3034.40,779.58 3031.12,775.99 3032.02,771.21 3037.12,765.24"/>
    </edge>
    <edge id=":cluster_1920242403_1936627911_7370620008_7371029962_0" function="internal">
        <lane id=":cluster_1920242403_1936627911_7370620008_7371029962_0_0" index="0" disallow="tram rail_urban rail rail_electric rail_fast ship container cable_car subway aircraft wheelchair scooter drone" speed="27.78" length="13.93" shape="1206.31,1106.98 1192.45,1105.63"/>
    </edge>
    <edge id=":cluster_1920242403_1936627911_7370620008_7371029962_1" function="internal">
        <lane id=":cluster_1920242403_1936627911_7370620008_7371029962_1_0" index="0" disallow="tram rail_urban rail rail_electric rail_fast ship container cable_car subway aircraft wheelchair scooter drone" speed="5.20" length="11.79" shape="1206.31,1106.98 1209.23,1109.16 1210.13,1111.23 1209.01,1113.19 1205.88,1115.04"/>
    </edge>
    <edge id=":cluster_1920242403_1936627911_7370620008_7371029962_2" function="internal">
        <lane id=":cluster_1920242403_1936627911_7370620008_7371029962_2_0" index="0" disallow="tram rail_urban rail rail_electric rail_fast ship container cable_car subway aircraft wheelchair scooter drone" speed="10.91" length="18.03" shape="1195.49,1101.05 1198.20,1107.06 1200.84,1111.39 1203.40,1114.06 1205.88,1115.04"/>
    </edge>
    <edge id=":cluster_1920242403_1936627911_7370620008_7371029962_3" function="internal">
        <lane id=":cluster_1920242403_1936627911_7370620008_7371029962_3_0" index="0" disallow="tram rail_urban rail rail_electric rail_fast ship container cable_car subway aircraft wheelchair scooter drone" speed="5.23" length="7.00" shape="1195.49,1101.05 1195.98,1103.02 1195.63,1104.44 1194.46,1105.31 1192.45,1105.63"/>
    </edge>
    <edge id=":cluster_1934768150_864964221_866835029_0" function="internal">
        <lane id=":cluster_1934768150_864964221_866835029_0_0" index="0" disallow="tram rail_urban rail rail_electric rail_fast ship container cable_car subway aircraft wheelchair scooter drone" speed="3.82" length="2.57" shape="428.42,1123.67 427.72,1123.59 427.22,1123.30 426.94,1122.80 426.88,1122.09"/>
        <lane id=":cluster_1934768150_864964221_866835029_0_1" index="1" disallow="tram rail_urban rail rail_electric rail_fast ship container cable_car subway aircraft wheelchair scooter drone" speed="3.78" length="2.48" shape="428.34,1120.47 430.07,1122.25"/>
    </edge>
    <edge id=":cluster_1936355577_296849097_9771116370_9771116371_0" function="internal">
        <lane id=":cluster_1936355577_296849097_9771116370_9771116371_0_0" index="0" disallow="tram rail_urban rail rail_electric rail_fast ship container cable_car subway aircraft wheelchair scooter drone" speed="6.28" length="18.30" shape="1507.18,222.36 1508.98,217.01 1511.60,214.69 1515.03,215.39 1519.28,219.12"/>
    </edge>
    <edge id=":cluster_1936499559_969803897_0" function="internal">
        <lane id=":cluster_1936499559_969803897_0_0" index="0" disallow="tram rail_urban rail rail_electric rail_fast ship container cable_car subway aircraft wheelchair scooter drone" speed="6.13" length="17.36" shape="2216.04,2017.24 2213.64,2022.04 2210.88,2023.88 2207.74,2022.77 2204.24,2018.72"/>
    </edge>
    <edge id=":cluster_1936627942_865054565_0" function="internal">
        <lane id=":cluster_1936627942_865054565_0_0" index="0" disallow="tram rail_urban rail rail_electric rail_fast ship container cable_car subway aircraft wheelchair scooter drone" speed="27.78" length="3.13" shape="1512.14,1133.91 1515.26,1134.06"/>
    </edge>
    <edge id=":cluster_1936627942_865054565_1" function="internal">
        <lane id=":cluster_1936627942_865054565_1_0" index="0" disallow="tram rail_urban rail rail_electric rail_fast ship container cable_car subway aircraft wheelchair scooter drone" speed="5.84" length="15.50" shape="1512.14,1133.91 1508.33,1131.02 1507.17,1128.29 1508.65,1125.73 1512.79,1123.32"/>
    </edge>
    <edge id=":cluster_245671328_5488342591_0" function="internal">
        <lane id=":cluster_245671328_5488342591_0_0" index="0" disallow="tram rail_urban rail rail_electric rail_fast ship container cable_car subway aircraft wheelchair scooter drone" speed="27.78" length="2.13" shape="2943.76,325.60 2943.16,325.80 2942.74,325.93 2942.32,326.04 2941.71,326.18"/>
    </edge>
    <edge id=":cluster_245671328_5488342591_1" function="internal">
        <lane id=":cluster_245671328_5488342591_1_0" index="0" disallow="tram rail_urban rail rail_electric rail_fast ship container cable_car subway aircraft wheelchair scooter drone" speed="5.96" length="8.12" shape="2943.98,337.06 2939.33,335.19 2937.40,332.75"/>
    </edge>
    <edge id=":cluster_245671328_5488342591_2" function="internal">
        <lane id=":cluster_245671328_5488342591_2_0" index="0" disallow="tram rail_urban rail rail_electric rail_fast ship container cable_car subway aircraft wheelchair scooter drone" speed="5.96" length="8.12" shape="2937.40,332.75 2938.19,329.75 2941.71,326.18"/>
    </edge>
    <edge id=":cluster_3708879345_4323064898_0" function="internal">
        <lane id=":cluster_3708879345_4323064898_0_0" index="0" disallow="tram rail_urban rail rail_electric rail_fast ship container cable_car subway aircraft wheelchair scooter drone" speed="7.30" length="25.54" shape="3866.16,528.30 3858.75,525.58 3855.60,521.84 3856.71,517.08 3862.06,511.29"/>
    </edge>
    <edge id=":cluster_3708879372_623037777_0" function="internal">
        <lane id=":cluster_3708879372_623037777_0_0" index="0" disallow="tram rail_urban rail rail_electric rail_fast ship container cable_car subway aircraft wheelchair scooter drone" speed="5.11" length="6.07" shape="3447.95,612.20 3445.58,612.64 3443.89,612.66 3442.87,612.27 3442.53,611.46"/>
    </edge>
    <edge id=":cluster_3708879372_623037777_1" function="internal">
        <lane id=":cluster_3708879372_623037777_1_0" index="0" disallow="tram rail_urban rail rail_electric rail_fast ship container cable_car subway aircraft wheelchair scooter drone" speed="8.38" length="18.51" shape="3445.73,611.46 3446.11,618.85 3447.22,623.92 3449.06,626.68 3451.63,627.11"/>
        <lane id=":cluster_3708879372_623037777_1_1" index="1" disallow="tram rail_urban rail rail_electric rail_fast ship container cable_car subway aircraft wheelchair scooter drone" speed="9.06" length="21.89" shape="3445.73,611.46 3446.16,620.28 3447.42,626.34 3449.49,629.66 3452.39,630.22"/>
    </edge>
    <edge id=":cluster_3878413305_5936572231_623040010_0" function="internal">
        <lane id=":cluster_3878413305_5936572231_623040010_0_0" index="0" disallow="tram rail_urban rail rail_electric rail_fast ship container cable_car subway aircraft wheelchair scooter drone" speed="12.18" length="51.72" shape="3611.67,940.12 3602.14,943.86 3600.40,951.47 3606.47,962.95 3620.34,978.30"/>
    </edge>
    <edge id=":cluster_3878413305_5936572231_623040010_1" function="internal">
        <lane id=":cluster_3878413305_5936572231_623040010_1_0" index="0" disallow="tram rail_urban rail rail_electric rail_fast ship container cable_car subway aircraft wheelchair scooter drone" speed="4.28" length="3.13" shape="3611.67,940.12 3610.82,940.11 3610.16,939.84 3609.69,939.31 3609.40,938.51"/>
    </edge>
    <edge id=":cluster_5936572218_623040194_0" function="internal">
        <lane id=":cluster_5936572218_623040194_0_0" index="0" disallow="tram rail_urban rail rail_electric rail_fast ship container cable_car subway aircraft wheelchair scooter drone" speed="5.14" length="11.24" shape="3922.48,1279.98 3922.60,1276.51 3923.73,1274.68 3925.87,1274.48 3929.03,1275.92"/>
    </edge>
    <edge id=":cluster_7157873781_7157873782_7157873783_7157873784_0" function="internal">
        <lane id=":cluster_7157873781_7157873782_7157873783_7157873784_0_0" index="0" disallow="tram rail_urban rail rail_electric rail_fast ship container cable_car subway aircraft wheelchair scooter drone" speed="11.03" length="25.20" shape="558.25,2460.23 561.79,2458.02 563.97,2453.51 564.79,2446.69 564.24,2437.56"/>
        <lane id=":cluster_7157873781_7157873782_7157873783_7157873784_0_1" index="1" disallow="tram rail_urban rail rail_electric rail_fast ship container cable_car subway aircraft wheelchair scooter drone" speed="11.43" length="27.17" shape="558.25,2460.23 563.16,2457.70 566.33,2453.02 567.75,2446.18 567.42,2437.18"/>
    </edge>
    <edge id=":cluster_7157873781_7157873782_7157873783_7157873784_2" function="internal">
        <lane id=":cluster_7157873781_7157873782_7157873783_7157873784_2_0" index="0" disallow="tram rail_urban rail rail_electric rail_fast ship container cable_car subway aircraft wheelchair scooter drone" speed="6.93" length="22.81" shape="558.25,2460.23 551.62,2457.86 548.78,2454.55 549.73,2450.29 554.46,2445.08"/>
    </edge>
    <edge id=":cluster_7371029953_7371959394_7371959395_864964232_0" function="internal">
        <lane id=":cluster_7371029953_7371959394_7371959395_864964232_0_0" index="0" disallow="tram rail_urban rail rail_electric rail_fast ship container cable_car subway aircraft wheelchair scooter drone" speed="15.12" length="21.37" shape="1114.35,896.00 1114.51,897.88 1115.69,901.87 1117.89,907.98 1121.12,916.20"/>
    </edge>
    <edge id=":cluster_7371029953_7371959394_7371959395_864964232_1" function="internal">
        <lane id=":cluster_7371029953_7371959394_7371959395_864964232_1_0" index="0" disallow="tram rail_urban rail rail_electric rail_fast ship container cable_car subway aircraft wheelchair scooter drone" speed="6.94" length="22.91" shape="1111.41,894.74 1117.32,890.87 1121.70,890.61 1124.54,893.95 1125.84,900.90"/>
    </edge>
    <edge id=":cluster_7944344486_9117998473_9117998474_9117998475_0" function="internal">
        <lane id=":cluster_7944344486_9117998473_9117998474_9117998475_0_0" index="0" disallow="tram rail_urban rail rail_electric rail_fast ship container cable_car subway aircraft wheelchair scooter drone" speed="6.52" length="19.93" shape="-2.05,2586.21 3.75,2588.27 6.24,2591.16 5.42,2594.89 1.29,2599.45"/>
    </edge>
    <edge id=":cluster_864905398_866807202_0" function="internal">
        <lane id=":cluster_864905398_866807202_0_0" index="0" disallow="tram rail_urban rail rail_electric rail_fast ship container cable_car subway aircraft wheelchair scooter drone" speed="7.28" length="9.42" shape="1149.69,132.14 1149.41,128.07 1149.42,125.19 1149.70,123.50 1150.27,123.01"/>
    </edge>
    <edge id=":cluster_864905398_866807202_1" function="internal">
        <lane id=":cluster_864905398_866807202_1_0" index="0" disallow="tram rail_urban rail rail_electric rail_fast ship container cable_car subway aircraft wheelchair scooter drone" speed="6.43" length="10.19" shape="1140.12,123.91 1150.27,123.01"/>
    </edge>
    <edge id=":cluster_864905398_866807202_2" function="internal">
        <lane id=":cluster_864905398_866807202_2_0" index="0" disallow="tram rail_urban rail rail_electric rail_fast ship container cable_car subway aircraft wheelchair scooter drone" speed="27.78" length="9.10" shape="1140.12,123.91 1140.69,132.94"/>
        <lane id=":cluster_864905398_866807202_2_1" index="1" disallow="tram rail_urban rail rail_electric rail_fast ship container cable_car subway aircraft wheelchair scooter drone" speed="27.78" length="9.10" shape="1136.92,124.08 1137.50,133.22"/>
    </edge>
    <edge id=":cluster_864905398_866807202_4" function="internal">
        <lane id=":cluster_864905398_866807202_4_0" index="0" disallow="tram rail_urban rail rail_electric rail_fast ship container cable_car subway aircraft wheelchair scooter drone" speed="6.19" length="7.70" shape="1132.37,128.69 1134.49,128.95 1136.05,129.79 1137.05,131.21 1137.50,133.22"/>
    </edge>
    <edge id=":cluster_864905398_866807202_5" function="internal">
        <lane id=":cluster_864905398_866807202_5_0" index="0" disallow="tram rail_urban rail rail_electric rail_fast ship container cable_car subway aircraft wheelchair scooter drone" speed="7.75" length="23.77" shape="1132.37,128.69 1134.72,120.56 1138.48,116.90 1143.66,117.72 1147.42,120.73"/>
    </edge>
    <edge id=":cluster_864905398_866807202_6" function="internal">